<routes>
    <vType accel="1.0" decel="5.0" id="Car" length="5.0" maxSpeed="40.0" sigma="0.0" />
    <route id="Etelasta_alueelle" edges="33972928#1 58659227#0 58659227#1 58659223 209879294 209879293 209879298 209879295#0 209879295#1 209879295#2 209879295#3 209990435 58659236 209990442#0"/>
    <route id="Pohjoisesta_alueelle" edges="-210355653#0 -215406897 210355657 -210355645"/>
<vehicle depart="0" id="veh1" route="Pohjoisesta_alueelle" type="Car" />
<vehicle depart="1" id="veh2" route="Pohjoisesta_alueelle" type="Car" />
<vehicle depart="2" id="veh3" route="Pohjoisesta_alueelle" type="Car" />
<vehicle depart="3" id="veh4" route="Etelasta_alueelle" type="Car" />
<vehicle depart="4" id="veh5" route="Pohjoisesta_alueelle" type="Car" />
<vehicle depart="5" id="veh6" route="Pohjoisesta_alueelle" type="Car" />
<vehicle depart="6" id="veh7" route="Pohjoisesta_alueelle" type="Car" />
<vehicle depart="7" id="veh8" route="Pohjoisesta_alueelle" type="Car" />
<vehicle depart="8" id="veh9" route="Etelasta_alueelle" type="Car" />
<vehicle depart="9" id="veh10" route="Etelasta_alueelle" type="Car" />
<vehicle depart="10" id="veh11" route="Etelasta_alueelle" type="Car" />
<vehicle depart="11" id="veh12" route="Pohjoisesta_alueelle" type="Car" />
<vehicle depart="12" id="veh13" route="Etelasta_alueelle" type="Car" />
<vehicle depart="13" id="veh14" route="Pohjoisesta_alueelle" type="Car" />
<vehicle depart="14" id="veh15" route="Pohjoisesta_alueelle" type="Car" />
<vehicle depart="15" id="veh16" route="Pohjoisesta_alueelle" type="Car" />
<vehicle depart="16" id="veh17" route="Etelasta_alueelle" type="Car" />
<vehicle depart="17" id="veh18" route="Etelasta_alueelle" type="Car" />
<vehicle depart="18" id="veh19" route="Pohjoisesta_alueelle" type="Car" />
<vehicle depart="19" id="veh20" route="Etelasta_alueelle" type="Car" />
<vehicle depart="20" id="veh21" route="Etelasta_alueelle" type="Car" />
<vehicle depart="21" id="veh22" route="Etelasta_alueelle" type="Car" />
<vehicle depart="22" id="veh23" route="Etelasta_alueelle" type="Car" />
<vehicle depart="23" id="veh24" route="Etelasta_alueelle" type="Car" />
<vehicle depart="24" id="veh25" route="Pohjoisesta_alueelle" type="Car" />
<vehicle depart="25" id="veh26" route="Etelasta_alueelle" type="Car" />
<vehicle depart="26" id="veh27" route="Etelasta_alueelle" type="Car" />
<vehicle depart="27" id="veh28" route="Pohjoisesta_alueelle" type="Car" />
<vehicle depart="28" id="veh29" route="Etelasta_alueelle" type="Car" />
<vehicle depart="29" id="veh30" route="Pohjoisesta_alueelle" type="Car" />
<vehicle depart="30" id="veh31" route="Etelasta_alueelle" type="Car" />
<vehicle depart="31" id="veh32" route="Pohjoisesta_alueelle" type="Car" />
<vehicle depart="32" id="veh33" route="Etelasta_alueelle" type="Car" />
<vehicle depart="33" id="veh34" route="Etelasta_alueelle" type="Car" />
<vehicle depart="34" id="veh35" route="Pohjoisesta_alueelle" type="Car" />
<vehicle depart="35" id="veh36" route="Etelasta_alueelle" type="Car" />
<vehicle depart="36" id="veh37" route="Etelasta_alueelle" type="Car" />
<vehicle depart="37" id="veh38" route="Pohjoisesta_alueelle" type="Car" />
<vehicle depart="38" id="veh39" route="Pohjoisesta_alueelle" type="Car" />
<vehicle depart="39" id="veh40" route="Pohjoisesta_alueelle" type="Car" />
<vehicle depart="40" id="veh41" route="Pohjoisesta_alueelle" type="Car" />
<vehicle depart="41" id="veh42" route="Etelasta_alueelle" type="Car" />
<vehicle depart="42" id="veh43" route="Pohjoisesta_alueelle" type="Car" />
<vehicle depart="43" id="veh44" route="Etelasta_alueelle" type="Car" />
<vehicle depart="44" id="veh45" route="Etelasta_alueelle" type="Car" />
<vehicle depart="45" id="veh46" route="Pohjoisesta_alueelle" type="Car" />
<vehicle depart="46" id="veh47" route="Pohjoisesta_alueelle" type="Car" />
<vehicle depart="47" id="veh48" route="Pohjoisesta_alueelle" type="Car" />
<vehicle depart="48" id="veh49" route="Etelasta_alueelle" type="Car" />
<vehicle depart="49" id="veh50" route="Pohjoisesta_alueelle" type="Car" />
<vehicle depart="50" id="veh51" route="Etelasta_alueelle" type="Car" />
<vehicle depart="51" id="veh52" route="Etelasta_alueelle" type="Car" />
<vehicle depart="52" id="veh53" route="Etelasta_alueelle" type="Car" />
<vehicle depart="53" id="veh54" route="Etelasta_alueelle" type="Car" />
<vehicle depart="54" id="veh55" route="Pohjoisesta_alueelle" type="Car" />
<vehicle depart="55" id="veh56" route="Pohjoisesta_alueelle" type="Car" />
<vehicle depart="56" id="veh57" route="Pohjoisesta_alueelle" type="Car" />

</routes>
