<routes>
    <vType accel="1.0" decel="5.0" id="Car" length="5.0" maxSpeed="40.0" sigma="0.0" />
<route id="Etelasta_alueelle" edges="33972928#1 58659227#0 58659227#1 58659223 209879294 209879293 209879298 209879295#0 209879295#1 209879295#2 209879295#3 209990435 58659236 209990442#0"/>

<route id="Etelasta_pohjoiseen" edges="33972928#1 58659228#0 58659228#1 43184172 43184173#0 43184173#1 43184173#2 43184175 43184176#0 43184176#1 43184176#2 122137076 209990426 122137074#0 122137074#1 122137074#2 122137072 209990432#0 209990432#1 209990432#2 43184180 43184181#0 43184181#1 43184182 122137084 43184183 215406897 210355653#0"/>

<route id="Pohjoisesta_etelaan" edges="-210355653#0 -215406897  -43184183 -122137084 -43184182 -43184181#1 -43184181#0 -43184180 -209990432#2 -209990432#1 -209990432#0 -122137072 -122137074#2 -122137074#1 -122137074#0 -209990426 -122137076 -43184176#2 -43184176#1 -43184176#0 -43184175 -43184173#2 -43184173#1 -43184173#0 -43184172 -58659228#1 -58659228#0 -33972928#1"/>

<route id="Pohjoisesta_alueelle" edges="-210355653#0 -215406897 210355657 -210355645"/>

<vehicle depart="0" id="veh1" route="Pohjoisesta_etelaan" type="Car" />
<vehicle depart="1" id="veh2" route="Pohjoisesta_etelaan" type="Car" />
<vehicle depart="2" id="veh3" route="Pohjoisesta_alueelle" type="Car" />
<vehicle depart="3" id="veh4" route="Pohjoisesta_etelaan" type="Car" />
<vehicle depart="4" id="veh5" route="Pohjoisesta_etelaan" type="Car" />
<vehicle depart="5" id="veh6" route="Etelasta_alueelle" type="Car" />
<vehicle depart="6" id="veh7" route="Etelasta_pohjoiseen" type="Car" />
<vehicle depart="7" id="veh8" route="Etelasta_pohjoiseen" type="Car" />
<vehicle depart="8" id="veh9" route="Pohjoisesta_etelaan" type="Car" />
<vehicle depart="9" id="veh10" route="Etelasta_pohjoiseen" type="Car" />
<vehicle depart="10" id="veh11" route="Etelasta_alueelle" type="Car" />
<vehicle depart="11" id="veh12" route="Etelasta_alueelle" type="Car" />
<vehicle depart="12" id="veh13" route="Pohjoisesta_alueelle" type="Car" />
<vehicle depart="13" id="veh14" route="Pohjoisesta_alueelle" type="Car" />
<vehicle depart="14" id="veh15" route="Etelasta_alueelle" type="Car" />
<vehicle depart="15" id="veh16" route="Etelasta_pohjoiseen" type="Car" />
<vehicle depart="16" id="veh17" route="Etelasta_alueelle" type="Car" />
<vehicle depart="17" id="veh18" route="Etelasta_alueelle" type="Car" />
<vehicle depart="18" id="veh19" route="Pohjoisesta_etelaan" type="Car" />
<vehicle depart="19" id="veh20" route="Pohjoisesta_alueelle" type="Car" />
<vehicle depart="20" id="veh21" route="Pohjoisesta_etelaan" type="Car" />
<vehicle depart="21" id="veh22" route="Pohjoisesta_alueelle" type="Car" />
<vehicle depart="22" id="veh23" route="Pohjoisesta_etelaan" type="Car" />
<vehicle depart="23" id="veh24" route="Pohjoisesta_etelaan" type="Car" />
<vehicle depart="24" id="veh25" route="Pohjoisesta_alueelle" type="Car" />
<vehicle depart="25" id="veh26" route="Etelasta_alueelle" type="Car" />
<vehicle depart="26" id="veh27" route="Etelasta_pohjoiseen" type="Car" />
<vehicle depart="27" id="veh28" route="Etelasta_alueelle" type="Car" />
<vehicle depart="28" id="veh29" route="Pohjoisesta_alueelle" type="Car" />
<vehicle depart="29" id="veh30" route="Pohjoisesta_etelaan" type="Car" />
<vehicle depart="30" id="veh31" route="Etelasta_alueelle" type="Car" />
<vehicle depart="31" id="veh32" route="Pohjoisesta_etelaan" type="Car" />
<vehicle depart="32" id="veh33" route="Pohjoisesta_alueelle" type="Car" />
<vehicle depart="33" id="veh34" route="Pohjoisesta_alueelle" type="Car" />
<vehicle depart="34" id="veh35" route="Etelasta_alueelle" type="Car" />
<vehicle depart="35" id="veh36" route="Pohjoisesta_alueelle" type="Car" />
<vehicle depart="36" id="veh37" route="Etelasta_pohjoiseen" type="Car" />
<vehicle depart="37" id="veh38" route="Pohjoisesta_alueelle" type="Car" />
<vehicle depart="38" id="veh39" route="Etelasta_pohjoiseen" type="Car" />
<vehicle depart="39" id="veh40" route="Pohjoisesta_alueelle" type="Car" />
<vehicle depart="40" id="veh41" route="Etelasta_pohjoiseen" type="Car" />
<vehicle depart="41" id="veh42" route="Pohjoisesta_alueelle" type="Car" />
<vehicle depart="42" id="veh43" route="Pohjoisesta_etelaan" type="Car" />
<vehicle depart="43" id="veh44" route="Pohjoisesta_alueelle" type="Car" />
<vehicle depart="44" id="veh45" route="Etelasta_pohjoiseen" type="Car" />
<vehicle depart="45" id="veh46" route="Pohjoisesta_etelaan" type="Car" />
<vehicle depart="46" id="veh47" route="Etelasta_alueelle" type="Car" />
<vehicle depart="47" id="veh48" route="Pohjoisesta_alueelle" type="Car" />
<vehicle depart="48" id="veh49" route="Etelasta_alueelle" type="Car" />
<vehicle depart="49" id="veh50" route="Pohjoisesta_etelaan" type="Car" />
<vehicle depart="50" id="veh51" route="Etelasta_alueelle" type="Car" />
<vehicle depart="51" id="veh52" route="Pohjoisesta_etelaan" type="Car" />
<vehicle depart="52" id="veh53" route="Pohjoisesta_etelaan" type="Car" />
<vehicle depart="53" id="veh54" route="Etelasta_alueelle" type="Car" />
<vehicle depart="54" id="veh55" route="Etelasta_pohjoiseen" type="Car" />
<vehicle depart="55" id="veh56" route="Etelasta_pohjoiseen" type="Car" />
<vehicle depart="56" id="veh57" route="Pohjoisesta_alueelle" type="Car" />
<vehicle depart="57" id="veh58" route="Etelasta_pohjoiseen" type="Car" />
<vehicle depart="58" id="veh59" route="Etelasta_alueelle" type="Car" />
<vehicle depart="59" id="veh60" route="Pohjoisesta_alueelle" type="Car" />
<vehicle depart="60" id="veh61" route="Etelasta_pohjoiseen" type="Car" />
<vehicle depart="61" id="veh62" route="Etelasta_alueelle" type="Car" />
<vehicle depart="62" id="veh63" route="Etelasta_alueelle" type="Car" />
<vehicle depart="63" id="veh64" route="Pohjoisesta_alueelle" type="Car" />
<vehicle depart="64" id="veh65" route="Pohjoisesta_alueelle" type="Car" />
<vehicle depart="65" id="veh66" route="Pohjoisesta_etelaan" type="Car" />
<vehicle depart="66" id="veh67" route="Pohjoisesta_alueelle" type="Car" />
<vehicle depart="67" id="veh68" route="Pohjoisesta_alueelle" type="Car" />
<vehicle depart="68" id="veh69" route="Etelasta_pohjoiseen" type="Car" />
<vehicle depart="69" id="veh70" route="Pohjoisesta_etelaan" type="Car" />
<vehicle depart="70" id="veh71" route="Pohjoisesta_alueelle" type="Car" />
<vehicle depart="71" id="veh72" route="Etelasta_pohjoiseen" type="Car" />
<vehicle depart="72" id="veh73" route="Etelasta_alueelle" type="Car" />
<vehicle depart="73" id="veh74" route="Pohjoisesta_alueelle" type="Car" />
<vehicle depart="74" id="veh75" route="Pohjoisesta_etelaan" type="Car" />
<vehicle depart="75" id="veh76" route="Pohjoisesta_etelaan" type="Car" />
<vehicle depart="76" id="veh77" route="Etelasta_pohjoiseen" type="Car" />
<vehicle depart="77" id="veh78" route="Pohjoisesta_etelaan" type="Car" />
<vehicle depart="78" id="veh79" route="Etelasta_alueelle" type="Car" />
<vehicle depart="79" id="veh80" route="Etelasta_pohjoiseen" type="Car" />
<vehicle depart="80" id="veh81" route="Etelasta_pohjoiseen" type="Car" />
<vehicle depart="81" id="veh82" route="Etelasta_pohjoiseen" type="Car" />
<vehicle depart="82" id="veh83" route="Pohjoisesta_etelaan" type="Car" />
<vehicle depart="83" id="veh84" route="Pohjoisesta_etelaan" type="Car" />
<vehicle depart="84" id="veh85" route="Pohjoisesta_alueelle" type="Car" />
<vehicle depart="85" id="veh86" route="Pohjoisesta_etelaan" type="Car" />
<vehicle depart="86" id="veh87" route="Etelasta_pohjoiseen" type="Car" />
<vehicle depart="87" id="veh88" route="Etelasta_alueelle" type="Car" />
<vehicle depart="88" id="veh89" route="Pohjoisesta_etelaan" type="Car" />
<vehicle depart="89" id="veh90" route="Etelasta_alueelle" type="Car" />
<vehicle depart="90" id="veh91" route="Pohjoisesta_etelaan" type="Car" />
<vehicle depart="91" id="veh92" route="Pohjoisesta_etelaan" type="Car" />
<vehicle depart="92" id="veh93" route="Etelasta_pohjoiseen" type="Car" />
<vehicle depart="93" id="veh94" route="Etelasta_alueelle" type="Car" />
<vehicle depart="94" id="veh95" route="Etelasta_alueelle" type="Car" />
<vehicle depart="95" id="veh96" route="Etelasta_pohjoiseen" type="Car" />
<vehicle depart="96" id="veh97" route="Etelasta_pohjoiseen" type="Car" />
<vehicle depart="97" id="veh98" route="Pohjoisesta_etelaan" type="Car" />
<vehicle depart="98" id="veh99" route="Etelasta_alueelle" type="Car" />
<vehicle depart="99" id="veh100" route="Etelasta_alueelle" type="Car" />
<vehicle depart="100" id="veh101" route="Etelasta_pohjoiseen" type="Car" />
<vehicle depart="101" id="veh102" route="Pohjoisesta_etelaan" type="Car" />
<vehicle depart="102" id="veh103" route="Pohjoisesta_etelaan" type="Car" />
<vehicle depart="103" id="veh104" route="Pohjoisesta_etelaan" type="Car" />
<vehicle depart="104" id="veh105" route="Etelasta_alueelle" type="Car" />
<vehicle depart="105" id="veh106" route="Etelasta_alueelle" type="Car" />
<vehicle depart="106" id="veh107" route="Pohjoisesta_etelaan" type="Car" />
<vehicle depart="107" id="veh108" route="Etelasta_alueelle" type="Car" />
<vehicle depart="108" id="veh109" route="Pohjoisesta_alueelle" type="Car" />
<vehicle depart="109" id="veh110" route="Pohjoisesta_alueelle" type="Car" />
<vehicle depart="110" id="veh111" route="Etelasta_pohjoiseen" type="Car" />
<vehicle depart="111" id="veh112" route="Etelasta_alueelle" type="Car" />
<vehicle depart="112" id="veh113" route="Etelasta_alueelle" type="Car" />
<vehicle depart="113" id="veh114" route="Pohjoisesta_etelaan" type="Car" />
<vehicle depart="114" id="veh115" route="Etelasta_pohjoiseen" type="Car" />
<vehicle depart="115" id="veh116" route="Etelasta_pohjoiseen" type="Car" />
<vehicle depart="116" id="veh117" route="Etelasta_pohjoiseen" type="Car" />
<vehicle depart="117" id="veh118" route="Etelasta_pohjoiseen" type="Car" />
<vehicle depart="118" id="veh119" route="Etelasta_alueelle" type="Car" />
<vehicle depart="119" id="veh120" route="Etelasta_alueelle" type="Car" />
<vehicle depart="120" id="veh121" route="Etelasta_pohjoiseen" type="Car" />
<vehicle depart="121" id="veh122" route="Pohjoisesta_etelaan" type="Car" />
<vehicle depart="122" id="veh123" route="Etelasta_alueelle" type="Car" />
<vehicle depart="123" id="veh124" route="Etelasta_alueelle" type="Car" />
<vehicle depart="124" id="veh125" route="Etelasta_pohjoiseen" type="Car" />
<vehicle depart="125" id="veh126" route="Pohjoisesta_alueelle" type="Car" />
<vehicle depart="126" id="veh127" route="Pohjoisesta_etelaan" type="Car" />
<vehicle depart="127" id="veh128" route="Pohjoisesta_alueelle" type="Car" />
<vehicle depart="128" id="veh129" route="Pohjoisesta_etelaan" type="Car" />
<vehicle depart="129" id="veh130" route="Pohjoisesta_alueelle" type="Car" />
<vehicle depart="130" id="veh131" route="Etelasta_pohjoiseen" type="Car" />
<vehicle depart="131" id="veh132" route="Etelasta_alueelle" type="Car" />
<vehicle depart="132" id="veh133" route="Etelasta_alueelle" type="Car" />
<vehicle depart="133" id="veh134" route="Etelasta_pohjoiseen" type="Car" />
<vehicle depart="134" id="veh135" route="Pohjoisesta_etelaan" type="Car" />
<vehicle depart="135" id="veh136" route="Pohjoisesta_etelaan" type="Car" />
<vehicle depart="136" id="veh137" route="Pohjoisesta_etelaan" type="Car" />
<vehicle depart="137" id="veh138" route="Pohjoisesta_alueelle" type="Car" />
<vehicle depart="138" id="veh139" route="Etelasta_alueelle" type="Car" />
<vehicle depart="139" id="veh140" route="Etelasta_pohjoiseen" type="Car" />
<vehicle depart="140" id="veh141" route="Pohjoisesta_etelaan" type="Car" />
<vehicle depart="141" id="veh142" route="Etelasta_alueelle" type="Car" />
<vehicle depart="142" id="veh143" route="Etelasta_alueelle" type="Car" />
<vehicle depart="143" id="veh144" route="Pohjoisesta_alueelle" type="Car" />
<vehicle depart="144" id="veh145" route="Pohjoisesta_alueelle" type="Car" />
<vehicle depart="145" id="veh146" route="Etelasta_pohjoiseen" type="Car" />
<vehicle depart="146" id="veh147" route="Etelasta_pohjoiseen" type="Car" />
<vehicle depart="147" id="veh148" route="Pohjoisesta_etelaan" type="Car" />
<vehicle depart="148" id="veh149" route="Etelasta_pohjoiseen" type="Car" />
<vehicle depart="149" id="veh150" route="Etelasta_pohjoiseen" type="Car" />
<vehicle depart="150" id="veh151" route="Etelasta_pohjoiseen" type="Car" />
<vehicle depart="151" id="veh152" route="Pohjoisesta_etelaan" type="Car" />
<vehicle depart="152" id="veh153" route="Pohjoisesta_etelaan" type="Car" />
<vehicle depart="153" id="veh154" route="Pohjoisesta_alueelle" type="Car" />
<vehicle depart="154" id="veh155" route="Etelasta_alueelle" type="Car" />
<vehicle depart="155" id="veh156" route="Pohjoisesta_etelaan" type="Car" />
<vehicle depart="156" id="veh157" route="Etelasta_pohjoiseen" type="Car" />
<vehicle depart="157" id="veh158" route="Pohjoisesta_etelaan" type="Car" />
<vehicle depart="158" id="veh159" route="Etelasta_pohjoiseen" type="Car" />
<vehicle depart="159" id="veh160" route="Pohjoisesta_alueelle" type="Car" />
<vehicle depart="160" id="veh161" route="Pohjoisesta_etelaan" type="Car" />
<vehicle depart="161" id="veh162" route="Pohjoisesta_etelaan" type="Car" />
<vehicle depart="162" id="veh163" route="Etelasta_pohjoiseen" type="Car" />
<vehicle depart="163" id="veh164" route="Etelasta_alueelle" type="Car" />
<vehicle depart="164" id="veh165" route="Pohjoisesta_alueelle" type="Car" />
<vehicle depart="165" id="veh166" route="Etelasta_alueelle" type="Car" />
<vehicle depart="166" id="veh167" route="Etelasta_alueelle" type="Car" />
<vehicle depart="167" id="veh168" route="Pohjoisesta_alueelle" type="Car" />
<vehicle depart="168" id="veh169" route="Pohjoisesta_alueelle" type="Car" />
<vehicle depart="169" id="veh170" route="Pohjoisesta_etelaan" type="Car" />
<vehicle depart="170" id="veh171" route="Etelasta_alueelle" type="Car" />
<vehicle depart="171" id="veh172" route="Etelasta_alueelle" type="Car" />
<vehicle depart="172" id="veh173" route="Etelasta_pohjoiseen" type="Car" />
<vehicle depart="173" id="veh174" route="Etelasta_pohjoiseen" type="Car" />
<vehicle depart="174" id="veh175" route="Pohjoisesta_alueelle" type="Car" />
<vehicle depart="175" id="veh176" route="Pohjoisesta_alueelle" type="Car" />
<vehicle depart="176" id="veh177" route="Pohjoisesta_alueelle" type="Car" />
<vehicle depart="177" id="veh178" route="Pohjoisesta_etelaan" type="Car" />
<vehicle depart="178" id="veh179" route="Etelasta_pohjoiseen" type="Car" />
<vehicle depart="179" id="veh180" route="Etelasta_alueelle" type="Car" />
<vehicle depart="180" id="veh181" route="Etelasta_pohjoiseen" type="Car" />
<vehicle depart="181" id="veh182" route="Pohjoisesta_etelaan" type="Car" />
<vehicle depart="182" id="veh183" route="Pohjoisesta_alueelle" type="Car" />
<vehicle depart="183" id="veh184" route="Etelasta_alueelle" type="Car" />
<vehicle depart="184" id="veh185" route="Etelasta_pohjoiseen" type="Car" />
<vehicle depart="185" id="veh186" route="Pohjoisesta_alueelle" type="Car" />
<vehicle depart="186" id="veh187" route="Etelasta_alueelle" type="Car" />
<vehicle depart="187" id="veh188" route="Pohjoisesta_alueelle" type="Car" />
<vehicle depart="188" id="veh189" route="Pohjoisesta_etelaan" type="Car" />
<vehicle depart="189" id="veh190" route="Pohjoisesta_alueelle" type="Car" />
<vehicle depart="190" id="veh191" route="Etelasta_pohjoiseen" type="Car" />
<vehicle depart="191" id="veh192" route="Pohjoisesta_alueelle" type="Car" />
<vehicle depart="192" id="veh193" route="Pohjoisesta_alueelle" type="Car" />
<vehicle depart="193" id="veh194" route="Etelasta_pohjoiseen" type="Car" />
<vehicle depart="194" id="veh195" route="Pohjoisesta_alueelle" type="Car" />
<vehicle depart="195" id="veh196" route="Etelasta_alueelle" type="Car" />
<vehicle depart="196" id="veh197" route="Etelasta_pohjoiseen" type="Car" />
<vehicle depart="197" id="veh198" route="Pohjoisesta_etelaan" type="Car" />
<vehicle depart="198" id="veh199" route="Etelasta_alueelle" type="Car" />
<vehicle depart="199" id="veh200" route="Etelasta_alueelle" type="Car" />
<vehicle depart="200" id="veh201" route="Pohjoisesta_etelaan" type="Car" />
<vehicle depart="201" id="veh202" route="Pohjoisesta_etelaan" type="Car" />
<vehicle depart="202" id="veh203" route="Etelasta_pohjoiseen" type="Car" />
<vehicle depart="203" id="veh204" route="Pohjoisesta_alueelle" type="Car" />
<vehicle depart="204" id="veh205" route="Pohjoisesta_etelaan" type="Car" />
<vehicle depart="205" id="veh206" route="Pohjoisesta_etelaan" type="Car" />
<vehicle depart="206" id="veh207" route="Etelasta_alueelle" type="Car" />
<vehicle depart="207" id="veh208" route="Etelasta_alueelle" type="Car" />
<vehicle depart="208" id="veh209" route="Pohjoisesta_etelaan" type="Car" />
<vehicle depart="209" id="veh210" route="Etelasta_pohjoiseen" type="Car" />
<vehicle depart="210" id="veh211" route="Etelasta_pohjoiseen" type="Car" />
<vehicle depart="211" id="veh212" route="Etelasta_pohjoiseen" type="Car" />
<vehicle depart="212" id="veh213" route="Etelasta_pohjoiseen" type="Car" />
<vehicle depart="213" id="veh214" route="Etelasta_pohjoiseen" type="Car" />
<vehicle depart="214" id="veh215" route="Pohjoisesta_etelaan" type="Car" />
<vehicle depart="215" id="veh216" route="Pohjoisesta_alueelle" type="Car" />
<vehicle depart="216" id="veh217" route="Pohjoisesta_alueelle" type="Car" />
<vehicle depart="217" id="veh218" route="Pohjoisesta_etelaan" type="Car" />
<vehicle depart="218" id="veh219" route="Etelasta_pohjoiseen" type="Car" />
<vehicle depart="219" id="veh220" route="Pohjoisesta_etelaan" type="Car" />
<vehicle depart="220" id="veh221" route="Pohjoisesta_etelaan" type="Car" />
<vehicle depart="221" id="veh222" route="Pohjoisesta_etelaan" type="Car" />
<vehicle depart="222" id="veh223" route="Pohjoisesta_etelaan" type="Car" />
<vehicle depart="223" id="veh224" route="Pohjoisesta_alueelle" type="Car" />
<vehicle depart="224" id="veh225" route="Pohjoisesta_etelaan" type="Car" />
<vehicle depart="225" id="veh226" route="Pohjoisesta_alueelle" type="Car" />
<vehicle depart="226" id="veh227" route="Etelasta_pohjoiseen" type="Car" />
<vehicle depart="227" id="veh228" route="Pohjoisesta_etelaan" type="Car" />
<vehicle depart="228" id="veh229" route="Pohjoisesta_etelaan" type="Car" />
<vehicle depart="229" id="veh230" route="Pohjoisesta_etelaan" type="Car" />
<vehicle depart="230" id="veh231" route="Etelasta_alueelle" type="Car" />
<vehicle depart="231" id="veh232" route="Etelasta_alueelle" type="Car" />
<vehicle depart="232" id="veh233" route="Pohjoisesta_etelaan" type="Car" />
<vehicle depart="233" id="veh234" route="Pohjoisesta_alueelle" type="Car" />
<vehicle depart="234" id="veh235" route="Pohjoisesta_etelaan" type="Car" />
<vehicle depart="235" id="veh236" route="Etelasta_pohjoiseen" type="Car" />
<vehicle depart="236" id="veh237" route="Pohjoisesta_etelaan" type="Car" />
<vehicle depart="237" id="veh238" route="Etelasta_alueelle" type="Car" />
<vehicle depart="238" id="veh239" route="Pohjoisesta_etelaan" type="Car" />
<vehicle depart="239" id="veh240" route="Etelasta_pohjoiseen" type="Car" />
<vehicle depart="240" id="veh241" route="Pohjoisesta_etelaan" type="Car" />
<vehicle depart="241" id="veh242" route="Pohjoisesta_etelaan" type="Car" />
<vehicle depart="242" id="veh243" route="Etelasta_alueelle" type="Car" />
<vehicle depart="243" id="veh244" route="Pohjoisesta_alueelle" type="Car" />
<vehicle depart="244" id="veh245" route="Pohjoisesta_alueelle" type="Car" />
<vehicle depart="245" id="veh246" route="Etelasta_pohjoiseen" type="Car" />
<vehicle depart="246" id="veh247" route="Etelasta_alueelle" type="Car" />
<vehicle depart="247" id="veh248" route="Pohjoisesta_alueelle" type="Car" />
<vehicle depart="248" id="veh249" route="Etelasta_pohjoiseen" type="Car" />
<vehicle depart="249" id="veh250" route="Etelasta_pohjoiseen" type="Car" />
<vehicle depart="250" id="veh251" route="Pohjoisesta_etelaan" type="Car" />
<vehicle depart="251" id="veh252" route="Pohjoisesta_etelaan" type="Car" />
<vehicle depart="252" id="veh253" route="Pohjoisesta_alueelle" type="Car" />
<vehicle depart="253" id="veh254" route="Pohjoisesta_etelaan" type="Car" />
<vehicle depart="254" id="veh255" route="Pohjoisesta_etelaan" type="Car" />
<vehicle depart="255" id="veh256" route="Pohjoisesta_alueelle" type="Car" />
<vehicle depart="256" id="veh257" route="Etelasta_pohjoiseen" type="Car" />
<vehicle depart="257" id="veh258" route="Pohjoisesta_etelaan" type="Car" />
<vehicle depart="258" id="veh259" route="Etelasta_pohjoiseen" type="Car" />
<vehicle depart="259" id="veh260" route="Etelasta_alueelle" type="Car" />
<vehicle depart="260" id="veh261" route="Pohjoisesta_alueelle" type="Car" />
<vehicle depart="261" id="veh262" route="Pohjoisesta_alueelle" type="Car" />
<vehicle depart="262" id="veh263" route="Pohjoisesta_alueelle" type="Car" />
<vehicle depart="263" id="veh264" route="Pohjoisesta_alueelle" type="Car" />
<vehicle depart="264" id="veh265" route="Pohjoisesta_etelaan" type="Car" />
<vehicle depart="265" id="veh266" route="Pohjoisesta_alueelle" type="Car" />
<vehicle depart="266" id="veh267" route="Etelasta_alueelle" type="Car" />
<vehicle depart="267" id="veh268" route="Etelasta_pohjoiseen" type="Car" />
<vehicle depart="268" id="veh269" route="Etelasta_alueelle" type="Car" />
<vehicle depart="269" id="veh270" route="Pohjoisesta_etelaan" type="Car" />
<vehicle depart="270" id="veh271" route="Pohjoisesta_alueelle" type="Car" />
<vehicle depart="271" id="veh272" route="Etelasta_pohjoiseen" type="Car" />
<vehicle depart="272" id="veh273" route="Pohjoisesta_etelaan" type="Car" />
<vehicle depart="273" id="veh274" route="Etelasta_pohjoiseen" type="Car" />
<vehicle depart="274" id="veh275" route="Etelasta_pohjoiseen" type="Car" />
<vehicle depart="275" id="veh276" route="Pohjoisesta_alueelle" type="Car" />
<vehicle depart="276" id="veh277" route="Pohjoisesta_etelaan" type="Car" />
<vehicle depart="277" id="veh278" route="Pohjoisesta_etelaan" type="Car" />
<vehicle depart="278" id="veh279" route="Etelasta_alueelle" type="Car" />
<vehicle depart="279" id="veh280" route="Pohjoisesta_etelaan" type="Car" />
<vehicle depart="280" id="veh281" route="Etelasta_alueelle" type="Car" />
<vehicle depart="281" id="veh282" route="Etelasta_pohjoiseen" type="Car" />
<vehicle depart="282" id="veh283" route="Etelasta_alueelle" type="Car" />
<vehicle depart="283" id="veh284" route="Pohjoisesta_etelaan" type="Car" />
<vehicle depart="284" id="veh285" route="Pohjoisesta_alueelle" type="Car" />
<vehicle depart="285" id="veh286" route="Etelasta_pohjoiseen" type="Car" />
<vehicle depart="286" id="veh287" route="Pohjoisesta_etelaan" type="Car" />
<vehicle depart="287" id="veh288" route="Etelasta_pohjoiseen" type="Car" />
<vehicle depart="288" id="veh289" route="Pohjoisesta_etelaan" type="Car" />
<vehicle depart="289" id="veh290" route="Pohjoisesta_alueelle" type="Car" />
<vehicle depart="290" id="veh291" route="Pohjoisesta_etelaan" type="Car" />
<vehicle depart="291" id="veh292" route="Pohjoisesta_etelaan" type="Car" />
<vehicle depart="292" id="veh293" route="Etelasta_pohjoiseen" type="Car" />
<vehicle depart="293" id="veh294" route="Pohjoisesta_etelaan" type="Car" />
<vehicle depart="294" id="veh295" route="Etelasta_alueelle" type="Car" />
<vehicle depart="295" id="veh296" route="Etelasta_alueelle" type="Car" />
<vehicle depart="296" id="veh297" route="Etelasta_pohjoiseen" type="Car" />
<vehicle depart="297" id="veh298" route="Etelasta_alueelle" type="Car" />
<vehicle depart="298" id="veh299" route="Pohjoisesta_etelaan" type="Car" />
<vehicle depart="299" id="veh300" route="Etelasta_alueelle" type="Car" />
<vehicle depart="300" id="veh301" route="Pohjoisesta_etelaan" type="Car" />
<vehicle depart="301" id="veh302" route="Pohjoisesta_alueelle" type="Car" />
<vehicle depart="302" id="veh303" route="Etelasta_alueelle" type="Car" />
<vehicle depart="303" id="veh304" route="Etelasta_alueelle" type="Car" />
<vehicle depart="304" id="veh305" route="Etelasta_alueelle" type="Car" />
<vehicle depart="305" id="veh306" route="Etelasta_pohjoiseen" type="Car" />
<vehicle depart="306" id="veh307" route="Etelasta_pohjoiseen" type="Car" />
<vehicle depart="307" id="veh308" route="Pohjoisesta_etelaan" type="Car" />
<vehicle depart="308" id="veh309" route="Pohjoisesta_alueelle" type="Car" />
<vehicle depart="309" id="veh310" route="Etelasta_pohjoiseen" type="Car" />
<vehicle depart="310" id="veh311" route="Pohjoisesta_etelaan" type="Car" />
<vehicle depart="311" id="veh312" route="Pohjoisesta_etelaan" type="Car" />
<vehicle depart="312" id="veh313" route="Pohjoisesta_alueelle" type="Car" />
<vehicle depart="313" id="veh314" route="Etelasta_alueelle" type="Car" />
<vehicle depart="314" id="veh315" route="Etelasta_pohjoiseen" type="Car" />
<vehicle depart="315" id="veh316" route="Etelasta_pohjoiseen" type="Car" />
<vehicle depart="316" id="veh317" route="Pohjoisesta_etelaan" type="Car" />
<vehicle depart="317" id="veh318" route="Pohjoisesta_etelaan" type="Car" />
<vehicle depart="318" id="veh319" route="Etelasta_alueelle" type="Car" />
<vehicle depart="319" id="veh320" route="Etelasta_alueelle" type="Car" />
<vehicle depart="320" id="veh321" route="Etelasta_pohjoiseen" type="Car" />
<vehicle depart="321" id="veh322" route="Pohjoisesta_etelaan" type="Car" />
<vehicle depart="322" id="veh323" route="Pohjoisesta_etelaan" type="Car" />
<vehicle depart="323" id="veh324" route="Pohjoisesta_etelaan" type="Car" />
<vehicle depart="324" id="veh325" route="Pohjoisesta_alueelle" type="Car" />
<vehicle depart="325" id="veh326" route="Pohjoisesta_alueelle" type="Car" />
<vehicle depart="326" id="veh327" route="Etelasta_pohjoiseen" type="Car" />
<vehicle depart="327" id="veh328" route="Pohjoisesta_alueelle" type="Car" />
<vehicle depart="328" id="veh329" route="Etelasta_alueelle" type="Car" />
<vehicle depart="329" id="veh330" route="Pohjoisesta_etelaan" type="Car" />
<vehicle depart="330" id="veh331" route="Etelasta_pohjoiseen" type="Car" />
<vehicle depart="331" id="veh332" route="Pohjoisesta_etelaan" type="Car" />
<vehicle depart="332" id="veh333" route="Pohjoisesta_alueelle" type="Car" />
<vehicle depart="333" id="veh334" route="Pohjoisesta_etelaan" type="Car" />
<vehicle depart="334" id="veh335" route="Pohjoisesta_alueelle" type="Car" />
<vehicle depart="335" id="veh336" route="Etelasta_pohjoiseen" type="Car" />
<vehicle depart="336" id="veh337" route="Etelasta_pohjoiseen" type="Car" />
<vehicle depart="337" id="veh338" route="Pohjoisesta_etelaan" type="Car" />
<vehicle depart="338" id="veh339" route="Etelasta_pohjoiseen" type="Car" />
<vehicle depart="339" id="veh340" route="Etelasta_alueelle" type="Car" />
<vehicle depart="340" id="veh341" route="Etelasta_pohjoiseen" type="Car" />
<vehicle depart="341" id="veh342" route="Etelasta_pohjoiseen" type="Car" />
<vehicle depart="342" id="veh343" route="Pohjoisesta_etelaan" type="Car" />
<vehicle depart="343" id="veh344" route="Etelasta_alueelle" type="Car" />
<vehicle depart="344" id="veh345" route="Pohjoisesta_etelaan" type="Car" />
<vehicle depart="345" id="veh346" route="Etelasta_alueelle" type="Car" />
<vehicle depart="346" id="veh347" route="Pohjoisesta_alueelle" type="Car" />
<vehicle depart="347" id="veh348" route="Pohjoisesta_etelaan" type="Car" />
<vehicle depart="348" id="veh349" route="Pohjoisesta_alueelle" type="Car" />
<vehicle depart="349" id="veh350" route="Pohjoisesta_etelaan" type="Car" />
<vehicle depart="350" id="veh351" route="Etelasta_alueelle" type="Car" />
<vehicle depart="351" id="veh352" route="Etelasta_alueelle" type="Car" />
<vehicle depart="352" id="veh353" route="Etelasta_pohjoiseen" type="Car" />
<vehicle depart="353" id="veh354" route="Etelasta_alueelle" type="Car" />
<vehicle depart="354" id="veh355" route="Pohjoisesta_alueelle" type="Car" />
<vehicle depart="355" id="veh356" route="Etelasta_pohjoiseen" type="Car" />
<vehicle depart="356" id="veh357" route="Pohjoisesta_etelaan" type="Car" />
<vehicle depart="357" id="veh358" route="Etelasta_pohjoiseen" type="Car" />
<vehicle depart="358" id="veh359" route="Pohjoisesta_alueelle" type="Car" />
<vehicle depart="359" id="veh360" route="Etelasta_alueelle" type="Car" />
<vehicle depart="360" id="veh361" route="Etelasta_alueelle" type="Car" />
<vehicle depart="361" id="veh362" route="Etelasta_pohjoiseen" type="Car" />
<vehicle depart="362" id="veh363" route="Etelasta_alueelle" type="Car" />
<vehicle depart="363" id="veh364" route="Pohjoisesta_etelaan" type="Car" />
<vehicle depart="364" id="veh365" route="Etelasta_alueelle" type="Car" />
<vehicle depart="365" id="veh366" route="Etelasta_alueelle" type="Car" />
<vehicle depart="366" id="veh367" route="Pohjoisesta_etelaan" type="Car" />
<vehicle depart="367" id="veh368" route="Pohjoisesta_etelaan" type="Car" />
<vehicle depart="368" id="veh369" route="Pohjoisesta_alueelle" type="Car" />
<vehicle depart="369" id="veh370" route="Pohjoisesta_etelaan" type="Car" />
<vehicle depart="370" id="veh371" route="Etelasta_pohjoiseen" type="Car" />
<vehicle depart="371" id="veh372" route="Etelasta_pohjoiseen" type="Car" />
<vehicle depart="372" id="veh373" route="Pohjoisesta_alueelle" type="Car" />
<vehicle depart="373" id="veh374" route="Pohjoisesta_alueelle" type="Car" />
<vehicle depart="374" id="veh375" route="Pohjoisesta_etelaan" type="Car" />
<vehicle depart="375" id="veh376" route="Pohjoisesta_alueelle" type="Car" />
<vehicle depart="376" id="veh377" route="Pohjoisesta_etelaan" type="Car" />
<vehicle depart="377" id="veh378" route="Pohjoisesta_alueelle" type="Car" />
<vehicle depart="378" id="veh379" route="Pohjoisesta_etelaan" type="Car" />