<?xml version="1.0" encoding="UTF-8"?>

<!-- generated on Tue Oct  4 21:05:12 2016 by SUMO netconvert Version 0.25.0
<?xml version="1.0" encoding="UTF-8"?>

<configuration xmlns:xsi="http://www.w3.org/2001/XMLSchema-instance" xsi:noNamespaceSchemaLocation="http://sumo.dlr.de/xsd/netconvertConfiguration.xsd">

    <input>
        <osm-files value="map.osm"/>
    </input>

    <output>
        <output-file value="liimattala.net.xml"/>
    </output>

    <projection>
        <proj.utm value="true"/>
    </projection>

</configuration>
-->

<net version="0.25" xmlns:xsi="http://www.w3.org/2001/XMLSchema-instance" xsi:noNamespaceSchemaLocation="http://sumo.dlr.de/xsd/net_file.xsd">

    <location netOffset="-426258.79,-6943862.52" convBoundary="0.00,0.00,19516.35,27592.35" origBoundary="25.558709,62.621386,25.938194,62.868174" projParameter="+proj=utm +zone=35 +ellps=WGS84 +datum=WGS84 +units=m +no_defs"/>

    <type id="highway.bridleway" priority="1" numLanes="1" speed="2.78" allow="pedestrian" oneway="1" width="2.00"/>
    <type id="highway.bus_guideway" priority="1" numLanes="1" speed="8.33" allow="bus" oneway="1"/>
    <type id="highway.cycleway" priority="1" numLanes="1" speed="5.56" allow="bicycle" oneway="0" width="1.00"/>
    <type id="highway.footway" priority="1" numLanes="1" speed="8.33" allow="pedestrian" oneway="1" width="2.00"/>
    <type id="highway.ford" priority="1" numLanes="1" speed="2.78" allow="army" oneway="0"/>
    <type id="highway.living_street" priority="3" numLanes="1" speed="2.78" disallow="tram rail_urban rail rail_electric ship" oneway="0"/>
    <type id="highway.motorway" priority="13" numLanes="2" speed="44.44" allow="private emergency authority army vip passenger hov taxi bus coach delivery truck trailer motorcycle evehicle custom1 custom2" oneway="1"/>
    <type id="highway.motorway_link" priority="12" numLanes="1" speed="22.22" allow="private emergency authority army vip passenger hov taxi bus coach delivery truck trailer motorcycle evehicle custom1 custom2" oneway="1"/>
    <type id="highway.path" priority="1" numLanes="1" speed="2.78" allow="bicycle pedestrian" oneway="1" width="2.00"/>
    <type id="highway.pedestrian" priority="1" numLanes="1" speed="8.33" allow="pedestrian" oneway="1" width="2.00"/>
    <type id="highway.primary" priority="9" numLanes="2" speed="27.78" disallow="tram rail_urban rail rail_electric ship" oneway="0"/>
    <type id="highway.primary_link" priority="8" numLanes="1" speed="22.22" disallow="tram rail_urban rail rail_electric ship" oneway="0"/>
    <type id="highway.raceway" priority="14" numLanes="2" speed="83.33" allow="vip" oneway="0"/>
    <type id="highway.residential" priority="4" numLanes="1" speed="13.89" disallow="tram rail_urban rail rail_electric ship" oneway="0"/>
    <type id="highway.secondary" priority="7" numLanes="2" speed="27.78" disallow="tram rail_urban rail rail_electric ship" oneway="0"/>
    <type id="highway.secondary_link" priority="6" numLanes="1" speed="22.22" disallow="tram rail_urban rail rail_electric ship" oneway="0"/>
    <type id="highway.service" priority="2" numLanes="1" speed="5.56" allow="delivery bicycle pedestrian" oneway="0"/>
    <type id="highway.services" priority="1" numLanes="1" speed="8.33" disallow="tram rail_urban rail rail_electric ship" oneway="0"/>
    <type id="highway.stairs" priority="1" numLanes="1" speed="1.39" allow="pedestrian" oneway="1" width="2.00"/>
    <type id="highway.step" priority="1" numLanes="1" speed="1.39" allow="pedestrian" oneway="1" width="2.00"/>
    <type id="highway.steps" priority="1" numLanes="1" speed="1.39" allow="pedestrian" oneway="1" width="2.00"/>
    <type id="highway.tertiary" priority="6" numLanes="1" speed="22.22" disallow="tram rail_urban rail rail_electric ship" oneway="0"/>
    <type id="highway.tertiary_link" priority="5" numLanes="1" speed="22.22" disallow="tram rail_urban rail rail_electric ship" oneway="0"/>
    <type id="highway.track" priority="1" numLanes="1" speed="5.56" disallow="tram rail_urban rail rail_electric ship" oneway="0"/>
    <type id="highway.trunk" priority="11" numLanes="2" speed="27.78" disallow="tram rail_urban rail rail_electric bicycle pedestrian ship" oneway="0"/>
    <type id="highway.trunk_link" priority="10" numLanes="1" speed="22.22" disallow="tram rail_urban rail rail_electric bicycle pedestrian ship" oneway="0"/>
    <type id="highway.unclassified" priority="5" numLanes="1" speed="13.89" disallow="tram rail_urban rail rail_electric ship" oneway="0"/>
    <type id="highway.unsurfaced" priority="1" numLanes="1" speed="8.33" disallow="tram rail_urban rail rail_electric ship" oneway="0"/>
    <type id="railway.light_rail" priority="15" numLanes="1" speed="27.78" allow="rail_urban" oneway="1"/>
    <type id="railway.preserved" priority="15" numLanes="1" speed="27.78" allow="rail" oneway="1"/>
    <type id="railway.rail" priority="15" numLanes="1" speed="83.33" allow="rail rail_electric" oneway="1"/>
    <type id="railway.subway" priority="15" numLanes="1" speed="27.78" allow="rail_urban" oneway="1"/>
    <type id="railway.tram" priority="15" numLanes="1" speed="13.89" allow="tram" oneway="1"/>

    <edge id=":1365531471_0" function="internal">
        <lane id=":1365531471_0_0" index="0" disallow="tram rail_urban rail rail_electric bicycle pedestrian ship" speed="27.78" length="0.10" shape="11020.53,13672.47 11020.53,13672.49"/>
        <lane id=":1365531471_0_1" index="1" disallow="tram rail_urban rail rail_electric bicycle pedestrian ship" speed="27.78" length="0.10" shape="11023.79,13671.97 11023.79,13671.98"/>
    </edge>
    <edge id=":1365531471_2" function="internal">
        <lane id=":1365531471_2_0" index="0" disallow="tram rail_urban rail rail_electric bicycle pedestrian ship" speed="27.78" length="2.41" shape="11023.79,13671.97 11024.42,13670.63 11025.18,13670.10"/>
    </edge>
    <edge id=":1365531471_6" function="internal">
        <lane id=":1365531471_6_0" index="0" speed="27.78" length="2.41" shape="11025.18,13670.10 11026.05,13670.38 11027.05,13671.48"/>
    </edge>
    <edge id=":1365531471_3" function="internal">
        <lane id=":1365531471_3_0" index="0" disallow="tram rail_urban rail rail_electric bicycle pedestrian ship" speed="27.78" length="0.10" shape="11030.32,13670.99 11030.32,13670.99"/>
        <lane id=":1365531471_3_1" index="1" disallow="tram rail_urban rail rail_electric bicycle pedestrian ship" speed="27.78" length="0.10" shape="11027.05,13671.48 11027.05,13671.48"/>
    </edge>
    <edge id=":1365531471_5" function="internal">
        <lane id=":1365531471_5_0" index="0" disallow="tram rail_urban rail rail_electric bicycle pedestrian ship" speed="27.78" length="2.41" shape="11027.05,13671.48 11026.43,13672.83 11025.67,13673.36"/>
    </edge>
    <edge id=":1365531471_7" function="internal">
        <lane id=":1365531471_7_0" index="0" speed="27.78" length="2.41" shape="11025.67,13673.36 11024.79,13673.08 11023.79,13671.98"/>
    </edge>
    <edge id=":1365531474_0" function="internal">
        <lane id=":1365531474_0_0" index="0" disallow="tram rail_urban rail rail_electric bicycle pedestrian ship" speed="22.22" length="0.10" shape="7661.82,3068.92 7661.86,3068.98"/>
        <lane id=":1365531474_0_1" index="1" disallow="tram rail_urban rail rail_electric bicycle pedestrian ship" speed="22.22" length="0.10" shape="7664.43,3066.91 7664.45,3066.93"/>
    </edge>
    <edge id=":1365531474_2" function="internal">
        <lane id=":1365531474_2_0" index="0" disallow="tram rail_urban rail rail_electric bicycle pedestrian ship" speed="22.22" length="2.41" shape="7664.43,3066.91 7664.33,3065.43 7664.73,3064.59"/>
    </edge>
    <edge id=":1365531474_6" function="internal">
        <lane id=":1365531474_6_0" index="0" speed="22.22" length="2.41" shape="7664.73,3064.59 7665.64,3064.42 7667.04,3064.89"/>
    </edge>
    <edge id=":1365531474_3" function="internal">
        <lane id=":1365531474_3_0" index="0" disallow="tram rail_urban rail rail_electric bicycle pedestrian ship" speed="22.22" length="0.10" shape="7669.66,3062.88 7669.66,3062.88"/>
        <lane id=":1365531474_3_1" index="1" disallow="tram rail_urban rail rail_electric bicycle pedestrian ship" speed="22.22" length="0.10" shape="7667.04,3064.89 7667.04,3064.89"/>
    </edge>
    <edge id=":1365531474_5" function="internal">
        <lane id=":1365531474_5_0" index="0" disallow="tram rail_urban rail rail_electric bicycle pedestrian ship" speed="22.22" length="2.41" shape="7667.04,3064.89 7667.16,3066.37 7666.76,3067.21"/>
    </edge>
    <edge id=":1365531474_7" function="internal">
        <lane id=":1365531474_7_0" index="0" speed="22.22" length="2.41" shape="7666.76,3067.21 7665.86,3067.39 7664.45,3066.93"/>
    </edge>
    <edge id=":1365531475_0" function="internal">
        <lane id=":1365531475_0_0" index="0" disallow="tram rail_urban rail rail_electric bicycle pedestrian ship" speed="27.78" length="0.10" shape="12894.74,19990.42 12894.74,19990.42"/>
        <lane id=":1365531475_0_1" index="1" disallow="tram rail_urban rail rail_electric bicycle pedestrian ship" speed="27.78" length="0.10" shape="12898.03,19990.16 12898.03,19990.16"/>
    </edge>
    <edge id=":1365531475_2" function="internal">
        <lane id=":1365531475_2_0" index="0" disallow="tram rail_urban rail rail_electric bicycle pedestrian ship" speed="27.78" length="2.41" shape="12898.03,19990.16 12898.75,19988.86 12899.54,19988.39"/>
    </edge>
    <edge id=":1365531475_5" function="internal">
        <lane id=":1365531475_5_0" index="0" speed="27.78" length="2.41" shape="12899.54,19988.39 12900.39,19988.73 12901.31,19989.90"/>
    </edge>
    <edge id=":1365531475_3" function="internal">
        <lane id=":1365531475_3_0" index="0" disallow="tram rail_urban rail rail_electric bicycle pedestrian ship" speed="27.78" length="0.10" shape="12901.31,19989.90 12901.31,19989.90"/>
    </edge>
    <edge id=":1365531475_4" function="internal">
        <lane id=":1365531475_4_0" index="0" disallow="tram rail_urban rail rail_electric bicycle pedestrian ship" speed="27.78" length="2.41" shape="12901.31,19989.90 12900.59,19991.20 12899.80,19991.67"/>
    </edge>
    <edge id=":1365531475_6" function="internal">
        <lane id=":1365531475_6_0" index="0" speed="27.78" length="2.41" shape="12899.80,19991.67 12898.95,19991.33 12898.03,19990.16"/>
    </edge>
    <edge id=":1365531477_0" function="internal">
        <lane id=":1365531477_0_0" index="0" disallow="tram rail_urban rail rail_electric bicycle pedestrian ship" speed="27.78" length="4.46" shape="11387.49,16148.71 11390.32,16145.26"/>
    </edge>
    <edge id=":1365531477_1" function="internal">
        <lane id=":1365531477_1_0" index="0" disallow="tram rail_urban rail rail_electric bicycle pedestrian ship" speed="27.78" length="2.41" shape="11390.75,16148.23 11391.39,16146.89 11392.15,16146.36"/>
    </edge>
    <edge id=":1365531477_5" function="internal">
        <lane id=":1365531477_5_0" index="0" speed="27.78" length="2.41" shape="11392.15,16146.36 11393.02,16146.65 11394.02,16147.75"/>
    </edge>
    <edge id=":1365531477_2" function="internal">
        <lane id=":1365531477_2_0" index="0" disallow="tram rail_urban rail rail_electric bicycle pedestrian ship" speed="27.78" length="3.73" shape="11393.59,16144.79 11397.28,16147.28"/>
        <lane id=":1365531477_2_1" index="1" disallow="tram rail_urban rail rail_electric bicycle pedestrian ship" speed="27.78" length="3.73" shape="11393.59,16144.79 11394.02,16147.75"/>
    </edge>
    <edge id=":1365531477_4" function="internal">
        <lane id=":1365531477_4_0" index="0" disallow="tram rail_urban rail rail_electric bicycle pedestrian ship" speed="27.78" length="3.19" shape="11393.59,16144.79 11392.95,16146.13 11392.19,16146.66 11391.45,16146.41"/>
    </edge>
    <edge id=":1365531477_6" function="internal">
        <lane id=":1365531477_6_0" index="0" speed="27.78" length="1.63" shape="11391.45,16146.41 11391.32,16146.37 11390.32,16145.26"/>
    </edge>
    <edge id=":1365531480_0" function="internal">
        <lane id=":1365531480_0_0" index="0" disallow="tram rail_urban rail rail_electric bicycle pedestrian ship" speed="27.78" length="3.73" shape="11142.54,14458.08 11138.83,14455.61"/>
        <lane id=":1365531480_0_1" index="1" disallow="tram rail_urban rail rail_electric bicycle pedestrian ship" speed="27.78" length="3.73" shape="11142.54,14458.08 11142.09,14455.11"/>
    </edge>
    <edge id=":1365531480_2" function="internal">
        <lane id=":1365531480_2_0" index="0" disallow="tram rail_urban rail rail_electric bicycle pedestrian ship" speed="27.78" length="3.19" shape="11142.54,14458.08 11143.17,14456.73 11143.93,14456.20 11144.67,14456.45"/>
    </edge>
    <edge id=":1365531480_5" function="internal">
        <lane id=":1365531480_5_0" index="0" speed="27.78" length="1.63" shape="11144.67,14456.45 11144.81,14456.49 11145.80,14457.59"/>
    </edge>
    <edge id=":1365531480_3" function="internal">
        <lane id=":1365531480_3_0" index="0" disallow="tram rail_urban rail rail_electric bicycle pedestrian ship" speed="27.78" length="4.46" shape="11148.62,14454.13 11145.80,14457.59"/>
    </edge>
    <edge id=":1365531480_4" function="internal">
        <lane id=":1365531480_4_0" index="0" disallow="tram rail_urban rail rail_electric bicycle pedestrian ship" speed="27.78" length="2.41" shape="11145.36,14454.62 11144.73,14455.97 11143.97,14456.50"/>
    </edge>
    <edge id=":1365531480_6" function="internal">
        <lane id=":1365531480_6_0" index="0" speed="27.78" length="2.41" shape="11143.97,14456.50 11143.10,14456.21 11142.09,14455.11"/>
    </edge>
    <edge id=":156735242_0" function="internal">
        <lane id=":156735242_0_0" index="0" disallow="tram rail_urban rail rail_electric ship" speed="22.22" length="4.82" shape="18784.75,-1.09 18786.19,-1.47 18787.08,-1.24 18787.43,-0.39 18787.23,1.09"/>
    </edge>
    <edge id=":156782480_0" function="internal">
        <lane id=":156782480_0_0" index="0" disallow="tram rail_urban rail rail_electric ship" speed="22.22" length="0.10" shape="13031.47,20229.02 13031.47,20229.03"/>
    </edge>
    <edge id=":156782480_1" function="internal">
        <lane id=":156782480_1_0" index="0" disallow="tram rail_urban rail rail_electric ship" speed="22.22" length="2.41" shape="13031.47,20229.02 13030.59,20230.22 13029.75,20230.60"/>
    </edge>
    <edge id=":156782480_4" function="internal">
        <lane id=":156782480_4_0" index="0" speed="22.22" length="2.41" shape="13029.75,20230.60 13028.94,20230.15 13028.17,20228.88"/>
    </edge>
    <edge id=":156782480_2" function="internal">
        <lane id=":156782480_2_0" index="0" disallow="tram rail_urban rail rail_electric ship" speed="22.22" length="0.10" shape="13028.17,20228.83 13028.17,20228.88"/>
    </edge>
    <edge id=":156782480_3" function="internal">
        <lane id=":156782480_3_0" index="0" disallow="tram rail_urban rail rail_electric ship" speed="22.22" length="2.41" shape="13028.17,20228.83 13029.07,20227.65 13029.92,20227.28"/>
    </edge>
    <edge id=":156782480_5" function="internal">
        <lane id=":156782480_5_0" index="0" speed="22.22" length="2.41" shape="13029.92,20227.28 13030.72,20227.74 13031.47,20229.03"/>
    </edge>
    <edge id=":156789933_0" function="internal">
        <lane id=":156789933_0_0" index="0" disallow="tram rail_urban rail rail_electric ship" speed="27.78" length="10.21" shape="12918.86,17640.28 12916.67,17642.35 12915.17,17643.77 12913.69,17645.21 12911.55,17647.34"/>
        <lane id=":156789933_0_1" index="1" disallow="tram rail_urban rail rail_electric ship" speed="27.78" length="10.21" shape="12916.60,17637.88 12914.38,17639.97 12912.87,17641.40 12911.38,17642.86 12909.22,17645.00"/>
    </edge>
    <edge id=":156789933_2" function="internal">
        <lane id=":156789933_2_0" index="0" disallow="tram rail_urban rail rail_electric ship" speed="20.84" length="6.69" shape="12916.60,17637.88 12912.72,17640.71 12910.86,17641.00"/>
    </edge>
    <edge id=":156789933_3" function="internal">
        <lane id=":156789933_3_0" index="0" disallow="tram rail_urban rail rail_electric ship" speed="27.78" length="2.41" shape="12916.60,17637.88 12915.13,17638.13 12914.27,17637.81"/>
    </edge>
    <edge id=":156789933_11" function="internal">
        <lane id=":156789933_11_0" index="0" speed="20.84" length="8.89" shape="12910.86,17641.00 12909.57,17641.20 12907.12,17639.35 12905.39,17635.17"/>
    </edge>
    <edge id=":156789933_12" function="internal">
        <lane id=":156789933_12_0" index="0" speed="27.78" length="2.41" shape="12914.27,17637.81 12914.00,17636.93 12914.33,17635.48"/>
    </edge>
    <edge id=":156789933_4" function="internal">
        <lane id=":156789933_4_0" index="0" disallow="tram rail_urban rail rail_electric ship" speed="20.84" length="6.01" shape="12906.81,17633.90 12907.91,17634.67 12909.16,17634.79 12910.54,17634.26 12912.07,17633.08"/>
    </edge>
    <edge id=":156789933_5" function="internal">
        <lane id=":156789933_5_0" index="0" disallow="tram rail_urban rail rail_electric ship" speed="20.84" length="11.36" shape="12906.81,17633.90 12909.22,17645.00"/>
    </edge>
    <edge id=":156789933_6" function="internal">
        <lane id=":156789933_6_0" index="0" disallow="tram rail_urban rail rail_electric ship" speed="13.89" length="2.78" shape="12906.81,17633.90 12906.93,17634.75 12906.73,17635.25 12906.22,17635.39 12905.39,17635.17"/>
    </edge>
    <edge id=":156789933_7" function="internal">
        <lane id=":156789933_7_0" index="0" disallow="tram rail_urban rail rail_electric ship" speed="20.84" length="5.46" shape="12904.56,17640.33 12905.26,17639.36 12905.63,17638.18 12905.67,17636.79 12905.39,17635.17"/>
    </edge>
    <edge id=":156789933_8" function="internal">
        <lane id=":156789933_8_0" index="0" disallow="tram rail_urban rail rail_electric ship" speed="27.78" length="10.38" shape="12904.56,17640.33 12906.76,17638.14 12908.28,17636.67 12909.81,17635.21 12912.07,17633.08"/>
        <lane id=":156789933_8_1" index="1" disallow="tram rail_urban rail rail_electric ship" speed="27.78" length="10.38" shape="12906.89,17642.66 12909.07,17640.50 12910.58,17639.04 12912.10,17637.59 12914.33,17635.48"/>
    </edge>
    <edge id=":156789933_10" function="internal">
        <lane id=":156789933_10_0" index="0" disallow="tram rail_urban rail rail_electric ship" speed="27.78" length="2.41" shape="12906.89,17642.66 12908.35,17642.37 12909.23,17642.67"/>
    </edge>
    <edge id=":156789933_13" function="internal">
        <lane id=":156789933_13_0" index="0" speed="27.78" length="2.41" shape="12909.23,17642.67 12909.52,17643.54 12909.22,17645.00"/>
    </edge>
    <edge id=":1633421189_0" function="internal">
        <lane id=":1633421189_0_0" index="0" disallow="tram rail_urban rail rail_electric ship" speed="27.78" length="4.82" shape="19516.19,15285.94 19517.50,15286.64 19517.99,15287.42 19517.66,15288.28 19516.50,15289.22"/>
    </edge>
    <edge id=":1664222315_0" function="internal">
        <lane id=":1664222315_0_0" index="0" allow="bicycle" speed="5.56" length="1.61" width="1.00" shape="7494.87,2876.71 7495.08,2876.26 7495.33,2876.08 7495.62,2876.17 7495.96,2876.54"/>
    </edge>
    <edge id=":1664222315_1" function="internal">
        <lane id=":1664222315_1_0" index="0" disallow="tram rail_urban rail rail_electric bicycle pedestrian ship" speed="22.22" length="5.03" shape="7498.41,2875.07 7495.06,2871.30"/>
        <lane id=":1664222315_1_1" index="1" disallow="tram rail_urban rail rail_electric bicycle pedestrian ship" speed="22.22" length="5.03" shape="7500.91,2872.91 7497.58,2869.17"/>
    </edge>
    <edge id=":1664222315_3" function="internal">
        <lane id=":1664222315_3_0" index="0" disallow="tram rail_urban rail rail_electric bicycle pedestrian ship" speed="22.22" length="2.41" shape="7500.91,2872.91 7500.73,2871.44 7501.08,2870.59"/>
    </edge>
    <edge id=":1664222315_7" function="internal">
        <lane id=":1664222315_7_0" index="0" speed="22.22" length="2.41" shape="7501.08,2870.59 7501.98,2870.36 7503.41,2870.76"/>
    </edge>
    <edge id=":1664222315_4" function="internal">
        <lane id=":1664222315_4_0" index="0" disallow="tram rail_urban rail rail_electric bicycle pedestrian ship" speed="22.22" length="4.97" shape="7502.61,2864.90 7505.91,2868.60"/>
        <lane id=":1664222315_4_1" index="1" disallow="tram rail_urban rail rail_electric bicycle pedestrian ship" speed="22.22" length="4.97" shape="7500.09,2867.03 7503.41,2870.76"/>
    </edge>
    <edge id=":1664222315_6" function="internal">
        <lane id=":1664222315_6_0" index="0" disallow="tram rail_urban rail rail_electric bicycle pedestrian ship" speed="22.22" length="2.41" shape="7500.09,2867.03 7500.27,2868.51 7499.90,2869.36"/>
    </edge>
    <edge id=":1664222315_8" function="internal">
        <lane id=":1664222315_8_0" index="0" speed="22.22" length="2.41" shape="7499.90,2869.36 7499.01,2869.58 7497.58,2869.17"/>
    </edge>
    <edge id=":1664222369_0" function="internal">
        <lane id=":1664222369_0_0" index="0" allow="delivery bicycle pedestrian" speed="13.89" length="5.21" shape="6914.20,2504.99 6912.86,2505.00 6911.80,2505.48 6911.03,2506.42 6910.54,2507.83"/>
    </edge>
    <edge id=":1664222369_1" function="internal">
        <lane id=":1664222369_1_0" index="0" disallow="tram rail_urban rail rail_electric bicycle pedestrian ship" speed="22.22" length="9.43" shape="6914.20,2504.99 6904.85,2503.51"/>
        <lane id=":1664222369_1_1" index="1" disallow="tram rail_urban rail rail_electric bicycle pedestrian ship" speed="22.22" length="9.43" shape="6914.67,2501.72 6905.40,2500.26"/>
    </edge>
    <edge id=":1664222369_3" function="internal">
        <lane id=":1664222369_3_0" index="0" disallow="tram rail_urban rail rail_electric bicycle pedestrian ship" speed="22.22" length="2.41" shape="6914.67,2501.72 6913.56,2500.73 6913.27,2499.85"/>
    </edge>
    <edge id=":1664222369_11" function="internal">
        <lane id=":1664222369_11_0" index="0" speed="22.22" length="2.41" shape="6913.27,2499.85 6913.80,2499.10 6915.14,2498.45"/>
    </edge>
    <edge id=":1664222369_4" function="internal">
        <lane id=":1664222369_4_0" index="0" disallow="tram rail_urban rail rail_electric bicycle pedestrian ship" speed="22.22" length="9.06" shape="6906.70,2493.78 6915.61,2495.19"/>
        <lane id=":1664222369_4_1" index="1" disallow="tram rail_urban rail rail_electric bicycle pedestrian ship" speed="22.22" length="9.06" shape="6906.15,2497.04 6915.14,2498.45"/>
    </edge>
    <edge id=":1664222369_6" function="internal">
        <lane id=":1664222369_6_0" index="0" allow="delivery bicycle pedestrian" speed="13.89" length="4.41" shape="6906.15,2497.04 6908.84,2498.12 6909.75,2499.32"/>
    </edge>
    <edge id=":1664222369_7" function="internal">
        <lane id=":1664222369_7_0" index="0" disallow="tram rail_urban rail rail_electric bicycle pedestrian ship" speed="22.22" length="2.41" shape="6906.15,2497.04 6907.17,2498.12 6907.38,2499.02"/>
    </edge>
    <edge id=":1664222369_12" function="internal">
        <lane id=":1664222369_12_0" index="0" speed="13.89" length="8.82" shape="6909.75,2499.32 6910.47,2500.28 6911.04,2503.52 6910.54,2507.83"/>
    </edge>
    <edge id=":1664222369_13" function="internal">
        <lane id=":1664222369_13_0" index="0" speed="22.22" length="2.41" shape="6907.38,2499.02 6906.79,2499.73 6905.40,2500.26"/>
    </edge>
    <edge id=":1664222369_8" function="internal">
        <lane id=":1664222369_8_0" index="0" disallow="tram rail_urban rail rail_electric bicycle pedestrian ship" speed="13.89" length="5.05" shape="6907.31,2507.14 6907.40,2505.75 6907.02,2504.68 6906.17,2503.94 6904.85,2503.51"/>
    </edge>
    <edge id=":1664222369_9" function="internal">
        <lane id=":1664222369_9_0" index="0" disallow="tram rail_urban rail rail_electric bicycle pedestrian ship" speed="13.89" length="12.95" shape="6907.31,2507.14 6908.56,2503.03 6910.28,2500.21 6912.47,2498.68 6915.14,2498.45"/>
    </edge>
    <edge id=":1664222369_10" function="internal">
        <lane id=":1664222369_10_0" index="0" allow="delivery bicycle pedestrian" speed="5.56" length="4.82" shape="6907.31,2507.14 6908.37,2506.10 6909.27,2505.87 6909.99,2506.45 6910.54,2507.83"/>
    </edge>
    <edge id=":1853986904_0" function="internal">
        <lane id=":1853986904_0_0" index="0" allow="delivery bicycle pedestrian" speed="5.56" length="6.35" shape="6528.44,2358.71 6527.19,2358.10 6525.84,2358.15 6524.42,2358.86 6522.91,2360.21"/>
    </edge>
    <edge id=":1853986904_1" function="internal">
        <lane id=":1853986904_1_0" index="0" allow="delivery bicycle pedestrian" speed="5.56" length="9.73" shape="6528.44,2358.71 6520.16,2353.60"/>
    </edge>
    <edge id=":1853986904_2" function="internal">
        <lane id=":1853986904_2_0" index="0" allow="bicycle" speed="5.56" length="1.61" width="1.00" shape="6528.44,2358.71 6528.28,2358.24 6528.34,2357.93 6528.62,2357.80 6529.11,2357.83"/>
    </edge>
    <edge id=":1853986904_3" function="internal">
        <lane id=":1853986904_3_0" index="0" allow="bicycle" speed="5.56" length="9.67" width="1.00" shape="6522.24,2351.03 6529.11,2357.83"/>
    </edge>
    <edge id=":1853986904_4" function="internal">
        <lane id=":1853986904_4_0" index="0" allow="delivery bicycle pedestrian" speed="5.56" length="10.66" shape="6522.24,2351.03 6524.24,2353.19 6525.02,2355.44 6524.58,2357.78 6522.91,2360.21"/>
    </edge>
    <edge id=":1853986904_5" function="internal">
        <lane id=":1853986904_5_0" index="0" allow="delivery bicycle pedestrian" speed="5.56" length="4.82" shape="6522.24,2351.03 6522.68,2352.45 6522.48,2353.35 6521.65,2353.74 6520.16,2353.60"/>
    </edge>
    <edge id=":1853986904_6" function="internal">
        <lane id=":1853986904_6_0" index="0" allow="delivery bicycle pedestrian" speed="5.56" length="5.08" shape="6520.49,2357.97 6521.28,2356.82 6521.49,2355.70 6521.12,2354.63 6520.16,2353.60"/>
    </edge>
    <edge id=":1853986904_7" function="internal">
        <lane id=":1853986904_7_0" index="0" allow="bicycle" speed="5.56" length="9.63" width="1.00" shape="6520.49,2357.97 6522.39,2356.49 6524.46,2355.96 6526.70,2356.41 6529.11,2357.83"/>
    </edge>
    <edge id=":1853986904_8" function="internal">
        <lane id=":1853986904_8_0" index="0" allow="delivery bicycle pedestrian" speed="5.56" length="4.82" shape="6520.49,2357.97 6521.93,2357.62 6522.82,2357.88 6523.15,2358.74 6522.91,2360.21"/>
    </edge>
    <edge id=":1853986930_0" function="internal">
        <lane id=":1853986930_0_0" index="0" allow="delivery bicycle pedestrian" speed="5.56" length="4.82" shape="6519.02,2365.62 6517.63,2366.17 6516.72,2366.04 6516.28,2365.23 6516.31,2363.74"/>
    </edge>
    <edge id=":1853986975_0" function="internal">
        <lane id=":1853986975_0_0" index="0" allow="bicycle" speed="5.56" length="0.11" width="1.00" shape="7286.88,2670.41 7286.81,2670.33"/>
    </edge>
    <edge id=":1853986975_1" function="internal">
        <lane id=":1853986975_1_0" index="0" allow="bicycle" speed="5.56" length="0.15" width="1.00" shape="7286.88,2670.41 7286.88,2670.26"/>
    </edge>
    <edge id=":1853986975_4" function="internal">
        <lane id=":1853986975_4_0" index="0" speed="5.56" length="1.46" width="1.00" shape="7286.88,2670.26 7286.87,2669.91 7287.01,2669.64 7287.31,2669.59 7287.78,2669.77"/>
    </edge>
    <edge id=":1853986975_2" function="internal">
        <lane id=":1853986975_2_0" index="0" allow="bicycle" speed="5.56" length="0.34" width="1.00" shape="7287.55,2669.51 7287.78,2669.77"/>
    </edge>
    <edge id=":1853986975_3" function="internal">
        <lane id=":1853986975_3_0" index="0" allow="bicycle" speed="5.56" length="0.20" width="1.00" shape="7287.55,2669.51 7287.60,2669.71"/>
    </edge>
    <edge id=":1853986975_5" function="internal">
        <lane id=":1853986975_5_0" index="0" speed="5.56" length="1.40" width="1.00" shape="7287.60,2669.71 7287.67,2669.99 7287.59,2670.29 7287.30,2670.40 7286.81,2670.33"/>
    </edge>
    <edge id=":206111605_0" function="internal">
        <lane id=":206111605_0_0" index="0" disallow="tram rail_urban rail rail_electric ship" speed="18.05" length="7.21" shape="5069.54,16102.35 5068.61,16103.17 5067.85,16104.53 5067.26,16106.41 5066.82,16108.81"/>
    </edge>
    <edge id=":206111605_1" function="internal">
        <lane id=":206111605_1_0" index="0" disallow="tram rail_urban rail rail_electric ship" speed="22.22" length="9.73" shape="5069.54,16102.35 5060.33,16105.48"/>
    </edge>
    <edge id=":206111605_2" function="internal">
        <lane id=":206111605_2_0" index="0" disallow="tram rail_urban rail rail_electric ship" speed="22.22" length="2.75" shape="5069.54,16102.35 5068.06,16102.23 5067.29,16101.71 5067.28,16101.37"/>
    </edge>
    <edge id=":206111605_9" function="internal">
        <lane id=":206111605_9_0" index="0" speed="22.22" length="2.07" shape="5067.28,16101.37 5067.25,16100.79 5067.93,16099.47"/>
    </edge>
    <edge id=":206111605_3" function="internal">
        <lane id=":206111605_3_0" index="0" disallow="tram rail_urban rail rail_electric ship" speed="22.22" length="8.82" shape="5059.57,16102.27 5067.93,16099.47"/>
    </edge>
    <edge id=":206111605_4" function="internal">
        <lane id=":206111605_4_0" index="0" disallow="tram rail_urban rail rail_electric ship" speed="18.05" length="4.91" shape="5059.57,16102.27 5063.16,16101.93 5064.36,16102.42"/>
    </edge>
    <edge id=":206111605_5" function="internal">
        <lane id=":206111605_5_0" index="0" disallow="tram rail_urban rail rail_electric ship" speed="22.22" length="2.29" shape="5059.57,16102.27 5060.96,16102.79 5061.48,16103.40"/>
    </edge>
    <edge id=":206111605_10" function="internal">