
<routes>
    <vType accel="2.2" decel="8.0" id="Car" length="5.0" maxSpeed="40.0" sigma="0.5" color="0,255,0" guiShape="passenger/sedan"/>
    <vType accel="0.8" decel="5.0" id="Truck" length="20.0" maxSpeed="25.0" sigma="0.5" guiShape="truck/trailer"/>
    <vType accel="1.4" decel="5.0" id="Camper" length="15.0" maxSpeed="25.0" sigma="0.5" color="100,255,0" guiShape="truck/trailer"/>
    <vType accel="1.2" decel="5.0" id="Campervan" length="10.0" maxSpeed="30.0" sigma="0.5" guiShape="passenger/van"/>
    <vType accel="1.0" decel="5.0" id="Bus" length="15.0" maxSpeed="30.0" sigma="0.5" guiShape="bus"/>
<!-- Nelostieltä käännytään Liimattalantielle. Toistaiseksi päättyy kesken-->
<route id="Etelasta_alueelle" edges="33972928#1 58659227#0 58659227#1 58659223 209879294 209879293 209879298 209879295#0 209879295#1 209879295#2 209879295#3 209990435 58659236 209990442#0"/>
<!-- Nelostieltä käännytään Liimattalantielle. Päätyy alueelle E2-->
<route id="Etelasta_E2" edges="33972928#1 58659227#0 58659227#1 58659223 209879294 209879293 209879298 209879295#0 209879295#1 209879295#2 209879295#3 209990435 58659236 209990442#0 209990442#1 209990442#2 209990441#0 444302750 445409754 9990001 9990002 9990003 9990004 9990005 9990006 9990007 9990008 9990009 9990010 9990011 9990012 9990013 9990014 9990015"/>

<route id="Etelasta_Liimattalantieta" edges="33972928#1 58659227#0 58659227#1 58659223 209879294 209879293 209879298 209879295#0 209879295#1 209879295#2 209879295#3 209990435 58659236 209990442#0"/>

<route id="Etelasta_pohjoiseen" edges="33972928#1 58659228#0 58659228#1 43184172 43184173#0 43184173#1 43184173#2 43184175 43184176#0 43184176#1 43184176#2 122137076 209990426#0 209990426#1 122137074#0 122137074#1 122137074#2 122137074#3 122137072 209990432#0 209990432#1 209990432#2 43184180 43184181#0 43184181#1 43184182 122137084 43184183 215406897 210355653#0"/>

<route id="Pohjoisesta_etelaan" edges="-210355653#0 -215406897  -43184183 -122137084 -43184182 -43184181#1 -43184181#0 -43184180 -209990432#2 -209990432#1 -209990432#0 -122137072 -122137074#3 -122137074#2 -122137074#1 -122137074#0 -209990426#1 -209990426#0 -122137076 -43184176#2 -43184176#1 -43184176#0 -43184175 -43184173#2 -43184173#1 -43184173#0 -43184172 -58659228#1 -58659228#0 -33972928#1"/>

<route id="Pohjoisesta_mansikkatielle" edges="-210355653#0 -215406897  -43184183 -122137084 -43184182 -43184181#1 -43184181#0 -43184180 -209990432#2 -209990432#1 -209990432#0 -122137072 -122137074#3 -122137074#2 -444459995"/>
<!-- Pohjoisesta alueelle EA1 kylkeen asti -->
<route id="Pohjoisesta_alueelle" edges="-210355653#0 -215406897 210355657 -210355645 -210355664#1 -210355664#0 -210355650 -210355658 -25816560#6 -25816560#5 -25816560#4 -25816560#3 -25816560#2 -25816560#1 -25816560#0 -209990437#1 -209990437#0 -209990431#2 -209990431#1 -209990431#0 -150468309 -209990444#4 -209990444#3 -209990444#2 -209990444#1 -209990444#0 -209990440 -150468311 25657437#0 25657437#1 25657437#2 25657437#3 25657437#4 25657437#5 25657437#6 -209990441#4 -209990441#3 -209990441#2 -209990441#1 444302750"/>

<!-- Vilkkaimman tunnin raskas liikenne nelostietä pohjoiseen -->
<flow id="Raskas_pohjoiseen" color="1,1,0"  begin="0" end= "3600" vehsPerHour="62" type="Truck" route = "Etelasta_pohjoiseen">
</flow>
<!-- Vilkkaimman tunnin kevyt liikenne nelostietä pohjoiseen -->
<flow id="Kevyt_pohjoiseen" color="0,255,0"  begin="0" end= "3600" vehsPerHour="191" type="Car" route = "Etelasta_pohjoiseen">
</flow>
<!-- Vilkkaimman tunnin raskas liikenne nelostietä etelään -->
<flow id="Raskas_etelaan" color="1,1,0"  begin="0" end= "3600" vehsPerHour="62" type="Truck" route = "Pohjoisesta_etelaan">
</flow>
<!-- Vilkkaimman tunnin raskas liikenne nelostietä etelään -->
<flow id="Kevyt_etelaan" color="0,255,0"  begin="0" end= "3600" vehsPerHour="196" type="Car" route = "Pohjoisesta_etelaan">
</flow>
<!-- Paikallisliikenne etelästä Liimattalantielle -->
<flow id="Liimattala_etela_paikallis" color="0,255,0"  begin="0" end= "3600" vehsPerHour="13" type="Car" route = "Etelasta_Liimattalantieta">
</flow>

<!-- -->
<flow id="Taytto_A17" color="238,130,238"  begin="0" end= "3600" vehsPerHour="400" type="Camper" route = "Pohjoisesta_mansikkatielle">
</flow>
<!-- Pohjoisesta E2-alueelle-->
<flow id="Taytto_E2_pohjoinen" color="238,130,238"  begin="0" end= "3600" vehsPerHour="360" type="Camper" route = "Pohjoisesta_alueelle">

</flow>
<!-- Etelasta E2-alueelle-->
<flow id="Taytto_E2_etela" color="238,130,238"  begin="0" end= "3600" vehsPerHour="230" type="Camper" route = "Etelasta_E2">
        <stop lane="9990001_0" endPos="50" duration="10" parking="false"/>
        <stop lane="9990015_0" endPos="249" duration="3000" parking="false"/>

</flow>

</routes>
