
<routes>
    <vType accel="2.2" decel="8.0" id="Car" length="5.0" maxSpeed="40.0" sigma="0.5" color="0,255,0" guiShape="passenger/sedan"/>
    <vType accel="0.8" decel="5.0" id="Truck" length="20.0" maxSpeed="25.0" sigma="0.5" guiShape="truck/trailer"/>
    <vType accel="1.4" decel="5.0" id="Camper" length="15.0" maxSpeed="25.0" sigma="0.5" color="100,255,0" guiShape="truck/trailer"/>
    <vType accel="1.2" decel="5.0" id="Campervan" length="10.0" maxSpeed="30.0" sigma="0.5" guiShape="passenger/van"/>
    <vType accel="1.0" decel="5.0" id="Bus" length="15.0" maxSpeed="30.0" sigma="0.5" guiShape="bus"/>
<!-- Nelostieltä käännytään Liimattalantielle. Toistaiseksi päättyy kesken-->
<route id="Etelasta_alueelle" edges="33972928#1 58659227#0 58659227#1 58659223 209879294 209879293 209879298 209879295#0 209879295#1 209879295#2 209879295#3 209990435 58659236 209990442#0"/>

<route id="Etelasta_Liimattalantieta" edges="33972928#1 58659227#0 58659227#1 58659223 209879294 209879293 209879298 209879295#0 209879295#1 209879295#2 209879295#3 209990435 58659236 209990442#0"/>

<route id="Etelasta_pohjoiseen" edges="33972928#1 58659228#0 58659228#1 43184172 43184173#0 43184173#1 43184173#2 43184175 43184176#0 43184176#1 43184176#2 122137076 209990426#0 209990426#1 122137074#0 122137074#1 122137074#2 122137074#3 122137072 209990432#0 209990432#1 209990432#2 43184180 43184181#0 43184181#1 43184182 122137084 43184183 215406897 210355653#0"/>

<route id="Pohjoisesta_etelaan" edges="-210355653#0 -215406897  -43184183 -122137084 -43184182 -43184181#1 -43184181#0 -43184180 -209990432#2 -209990432#1 -209990432#0 -122137072 -122137074#3 -122137074#2 -122137074#1 -122137074#0 -209990426#1 -209990426#0 -122137076 -43184176#2 -43184176#1 -43184176#0 -43184175 -43184173#2 -43184173#1 -43184173#0 -43184172 -58659228#1 -58659228#0 -33972928#1"/>

<route id="Pohjoisesta_mansikkatielle" edges="-210355653#0 -215406897  -43184183 -122137084 -43184182 -43184181#1 -43184181#0 -43184180 -209990432#2 -209990432#1 -209990432#0 -122137072 -122137074#3 -122137074#2 -444459995"/>

<route id="Pohjoisesta_alueelle" edges="-210355653#0 -215406897 210355657 -210355645"/>

<!-- Vilkkaimman tunnin raskas liikenne nelostietä pohjoiseen -->
<flow id="Raskas_pohjoiseen" color="1,1,0"  begin="0" end= "3600" vehsPerHour="62" type="Truck" route = "Etelasta_pohjoiseen">
</flow>
<!-- Vilkkaimman tunnin kevyt liikenne nelostietä pohjoiseen -->
<flow id="Kevyt_pohjoiseen" color="0,255,0"  begin="0" end= "3600" vehsPerHour="191" type="Car" route = "Etelasta_pohjoiseen">
</flow>
<!-- Vilkkaimman tunnin raskas liikenne nelostietä etelään -->
<flow id="Raskas_etelaan" color="1,1,0"  begin="0" end= "3600" vehsPerHour="62" type="Truck" route = "Pohjoisesta_etelaan">
</flow>
<!-- Vilkkaimman tunnin raskas liikenne nelostietä etelään -->
<flow id="Kevyt_etelaan" color="0,255,0"  begin="0" end= "3600" vehsPerHour="196" type="Car" route = "Pohjoisesta_etelaan">
</flow>
<!-- Paikallisliikenne etelästä Liimattalantielle -->
<flow id="Liimattala_etela_paikallis" color="0,255,0"  begin="0" end= "3600" vehsPerHour="13" type="Car" route = "Etelasta_Liimattalantieta">
</flow>

<!-- -->
<flow id="Taytto_A17" color="238,130,238"  begin="0" end= "3600" vehsPerHour="400" type="Camper" route = "Pohjoisesta_mansikkatielle">
</flow>

</routes>
