<?xml version="1.0" encoding="UTF-8"?>

<!-- generated on Thu Sep 22 15:39:33 2016 by SUMO netconvert Version 0.25.0
<?xml version="1.0" encoding="UTF-8"?>

<configuration xmlns:xsi="http://www.w3.org/2001/XMLSchema-instance" xsi:noNamespaceSchemaLocation="http://sumo.dlr.de/xsd/netconvertConfiguration.xsd">

    <input>
        <osm-files value="map.osm"/>
    </input>

    <output>
        <output-file value="liimattala.net.xml"/>
    </output>

    <projection>
        <proj.utm value="true"/>
    </projection>

</configuration>
-->

<net version="0.25" xmlns:xsi="http://www.w3.org/2001/XMLSchema-instance" xsi:noNamespaceSchemaLocation="http://sumo.dlr.de/xsd/net_file.xsd">

    <location netOffset="-426258.79,-6945133.41" convBoundary="0.00,0.00,19516.35,23696.08" origBoundary="25.558709,62.631816,25.938194,62.843483" projParameter="+proj=utm +zone=35 +ellps=WGS84 +datum=WGS84 +units=m +no_defs"/>

    <type id="highway.bridleway" priority="1" numLanes="1" speed="2.78" allow="pedestrian" oneway="1" width="2.00"/>
    <type id="highway.bus_guideway" priority="1" numLanes="1" speed="8.33" allow="bus" oneway="1"/>
    <type id="highway.cycleway" priority="1" numLanes="1" speed="5.56" allow="bicycle" oneway="0" width="1.00"/>
    <type id="highway.footway" priority="1" numLanes="1" speed="8.33" allow="pedestrian" oneway="1" width="2.00"/>
    <type id="highway.ford" priority="1" numLanes="1" speed="2.78" allow="army" oneway="0"/>
    <type id="highway.living_street" priority="3" numLanes="1" speed="2.78" disallow="tram rail_urban rail rail_electric ship" oneway="0"/>
    <type id="highway.motorway" priority="13" numLanes="2" speed="44.44" allow="private emergency authority army vip passenger hov taxi bus coach delivery truck trailer motorcycle evehicle custom1 custom2" oneway="1"/>
    <type id="highway.motorway_link" priority="12" numLanes="1" speed="22.22" allow="private emergency authority army vip passenger hov taxi bus coach delivery truck trailer motorcycle evehicle custom1 custom2" oneway="1"/>
    <type id="highway.path" priority="1" numLanes="1" speed="2.78" allow="bicycle pedestrian" oneway="1" width="2.00"/>
    <type id="highway.pedestrian" priority="1" numLanes="1" speed="8.33" allow="pedestrian" oneway="1" width="2.00"/>
    <type id="highway.primary" priority="9" numLanes="2" speed="27.78" disallow="tram rail_urban rail rail_electric ship" oneway="0"/>
    <type id="highway.primary_link" priority="8" numLanes="1" speed="22.22" disallow="tram rail_urban rail rail_electric ship" oneway="0"/>
    <type id="highway.raceway" priority="14" numLanes="2" speed="83.33" allow="vip" oneway="0"/>
    <type id="highway.residential" priority="4" numLanes="1" speed="13.89" disallow="tram rail_urban rail rail_electric ship" oneway="0"/>
    <type id="highway.secondary" priority="7" numLanes="2" speed="27.78" disallow="tram rail_urban rail rail_electric ship" oneway="0"/>
    <type id="highway.secondary_link" priority="6" numLanes="1" speed="22.22" disallow="tram rail_urban rail rail_electric ship" oneway="0"/>
    <type id="highway.service" priority="2" numLanes="1" speed="5.56" allow="delivery bicycle pedestrian" oneway="0"/>
    <type id="highway.services" priority="1" numLanes="1" speed="8.33" disallow="tram rail_urban rail rail_electric ship" oneway="0"/>
    <type id="highway.stairs" priority="1" numLanes="1" speed="1.39" allow="pedestrian" oneway="1" width="2.00"/>
    <type id="highway.step" priority="1" numLanes="1" speed="1.39" allow="pedestrian" oneway="1" width="2.00"/>
    <type id="highway.steps" priority="1" numLanes="1" speed="1.39" allow="pedestrian" oneway="1" width="2.00"/>
    <type id="highway.tertiary" priority="6" numLanes="1" speed="22.22" disallow="tram rail_urban rail rail_electric ship" oneway="0"/>
    <type id="highway.tertiary_link" priority="5" numLanes="1" speed="22.22" disallow="tram rail_urban rail rail_electric ship" oneway="0"/>
    <type id="highway.track" priority="1" numLanes="1" speed="5.56" disallow="tram rail_urban rail rail_electric ship" oneway="0"/>
    <type id="highway.trunk" priority="11" numLanes="2" speed="27.78" disallow="tram rail_urban rail rail_electric bicycle pedestrian ship" oneway="0"/>
    <type id="highway.trunk_link" priority="10" numLanes="1" speed="22.22" disallow="tram rail_urban rail rail_electric bicycle pedestrian ship" oneway="0"/>
    <type id="highway.unclassified" priority="5" numLanes="1" speed="13.89" disallow="tram rail_urban rail rail_electric ship" oneway="0"/>
    <type id="highway.unsurfaced" priority="1" numLanes="1" speed="8.33" disallow="tram rail_urban rail rail_electric ship" oneway="0"/>
    <type id="railway.light_rail" priority="15" numLanes="1" speed="27.78" allow="rail_urban" oneway="1"/>
    <type id="railway.preserved" priority="15" numLanes="1" speed="27.78" allow="rail" oneway="1"/>
    <type id="railway.rail" priority="15" numLanes="1" speed="83.33" allow="rail rail_electric" oneway="1"/>
    <type id="railway.subway" priority="15" numLanes="1" speed="27.78" allow="rail_urban" oneway="1"/>
    <type id="railway.tram" priority="15" numLanes="1" speed="13.89" allow="tram" oneway="1"/>

    <edge id=":1365531471_0" function="internal">
        <lane id=":1365531471_0_0" index="0" disallow="tram rail_urban rail rail_electric bicycle pedestrian ship" speed="27.78" length="0.10" shape="11020.53,12401.57 11020.53,12401.59"/>
        <lane id=":1365531471_0_1" index="1" disallow="tram rail_urban rail rail_electric bicycle pedestrian ship" speed="27.78" length="0.10" shape="11023.79,12401.08 11023.79,12401.08"/>
    </edge>
    <edge id=":1365531471_2" function="internal">
        <lane id=":1365531471_2_0" index="0" disallow="tram rail_urban rail rail_electric bicycle pedestrian ship" speed="27.78" length="2.41" shape="11023.79,12401.08 11024.42,12399.73 11025.18,12399.20"/>
    </edge>
    <edge id=":1365531471_6" function="internal">
        <lane id=":1365531471_6_0" index="0" speed="27.78" length="2.41" shape="11025.18,12399.20 11026.05,12399.48 11027.05,12400.58"/>
    </edge>
    <edge id=":1365531471_3" function="internal">
        <lane id=":1365531471_3_0" index="0" disallow="tram rail_urban rail rail_electric bicycle pedestrian ship" speed="27.78" length="0.10" shape="11030.32,12400.09 11030.32,12400.09"/>
        <lane id=":1365531471_3_1" index="1" disallow="tram rail_urban rail rail_electric bicycle pedestrian ship" speed="27.78" length="0.10" shape="11027.05,12400.58 11027.05,12400.58"/>
    </edge>
    <edge id=":1365531471_5" function="internal">
        <lane id=":1365531471_5_0" index="0" disallow="tram rail_urban rail rail_electric bicycle pedestrian ship" speed="27.78" length="2.41" shape="11027.05,12400.58 11026.43,12401.93 11025.67,12402.47"/>
    </edge>
    <edge id=":1365531471_7" function="internal">
        <lane id=":1365531471_7_0" index="0" speed="27.78" length="2.41" shape="11025.67,12402.47 11024.79,12402.18 11023.79,12401.08"/>
    </edge>
    <edge id=":1365531474_0" function="internal">
        <lane id=":1365531474_0_0" index="0" disallow="tram rail_urban rail rail_electric bicycle pedestrian ship" speed="22.22" length="0.10" shape="7661.82,1798.03 7661.86,1798.08"/>
        <lane id=":1365531474_0_1" index="1" disallow="tram rail_urban rail rail_electric bicycle pedestrian ship" speed="22.22" length="0.10" shape="7664.43,1796.01 7664.45,1796.03"/>
    </edge>
    <edge id=":1365531474_2" function="internal">
        <lane id=":1365531474_2_0" index="0" disallow="tram rail_urban rail rail_electric bicycle pedestrian ship" speed="22.22" length="2.41" shape="7664.43,1796.01 7664.33,1794.53 7664.73,1793.70"/>
    </edge>
    <edge id=":1365531474_6" function="internal">
        <lane id=":1365531474_6_0" index="0" speed="22.22" length="2.41" shape="7664.73,1793.70 7665.64,1793.52 7667.04,1794.00"/>
    </edge>
    <edge id=":1365531474_3" function="internal">
        <lane id=":1365531474_3_0" index="0" disallow="tram rail_urban rail rail_electric bicycle pedestrian ship" speed="22.22" length="0.10" shape="7669.66,1791.98 7669.66,1791.98"/>
        <lane id=":1365531474_3_1" index="1" disallow="tram rail_urban rail rail_electric bicycle pedestrian ship" speed="22.22" length="0.10" shape="7667.04,1793.99 7667.04,1794.00"/>
    </edge>
    <edge id=":1365531474_5" function="internal">
        <lane id=":1365531474_5_0" index="0" disallow="tram rail_urban rail rail_electric bicycle pedestrian ship" speed="22.22" length="2.41" shape="7667.04,1793.99 7667.16,1795.48 7666.76,1796.31"/>
    </edge>
    <edge id=":1365531474_7" function="internal">
        <lane id=":1365531474_7_0" index="0" speed="22.22" length="2.41" shape="7666.76,1796.31 7665.86,1796.49 7664.45,1796.03"/>
    </edge>
    <edge id=":1365531475_0" function="internal">
        <lane id=":1365531475_0_0" index="0" disallow="tram rail_urban rail rail_electric bicycle pedestrian ship" speed="27.78" length="0.10" shape="12894.74,18719.53 12894.74,18719.53"/>
        <lane id=":1365531475_0_1" index="1" disallow="tram rail_urban rail rail_electric bicycle pedestrian ship" speed="27.78" length="0.10" shape="12898.03,18719.26 12898.03,18719.26"/>
    </edge>
    <edge id=":1365531475_2" function="internal">
        <lane id=":1365531475_2_0" index="0" disallow="tram rail_urban rail rail_electric bicycle pedestrian ship" speed="27.78" length="2.41" shape="12898.03,18719.26 12898.75,18717.96 12899.54,18717.49"/>
    </edge>
    <edge id=":1365531475_5" function="internal">
        <lane id=":1365531475_5_0" index="0" speed="27.78" length="2.41" shape="12899.54,18717.49 12900.39,18717.83 12901.31,18719.00"/>
    </edge>
    <edge id=":1365531475_3" function="internal">
        <lane id=":1365531475_3_0" index="0" disallow="tram rail_urban rail rail_electric bicycle pedestrian ship" speed="27.78" length="0.10" shape="12901.31,18719.00 12901.31,18719.00"/>
    </edge>
    <edge id=":1365531475_4" function="internal">
        <lane id=":1365531475_4_0" index="0" disallow="tram rail_urban rail rail_electric bicycle pedestrian ship" speed="27.78" length="2.41" shape="12901.31,18719.00 12900.59,18720.30 12899.80,18720.78"/>
    </edge>
    <edge id=":1365531475_6" function="internal">
        <lane id=":1365531475_6_0" index="0" speed="27.78" length="2.41" shape="12899.80,18720.78 12898.95,18720.43 12898.03,18719.26"/>
    </edge>
    <edge id=":1365531477_0" function="internal">
        <lane id=":1365531477_0_0" index="0" disallow="tram rail_urban rail rail_electric bicycle pedestrian ship" speed="27.78" length="0.10" shape="11387.27,14876.33 11387.27,14876.32"/>
        <lane id=":1365531477_0_1" index="1" disallow="tram rail_urban rail rail_electric bicycle pedestrian ship" speed="27.78" length="0.10" shape="11390.54,14875.85 11390.54,14875.85"/>
    </edge>
    <edge id=":1365531477_2" function="internal">
        <lane id=":1365531477_2_0" index="0" disallow="tram rail_urban rail rail_electric bicycle pedestrian ship" speed="27.78" length="2.41" shape="11390.54,14875.85 11391.17,14874.51 11391.93,14873.98"/>
    </edge>
    <edge id=":1365531477_6" function="internal">
        <lane id=":1365531477_6_0" index="0" speed="27.78" length="2.41" shape="11391.93,14873.98 11392.81,14874.27 11393.80,14875.37"/>
    </edge>
    <edge id=":1365531477_3" function="internal">
        <lane id=":1365531477_3_0" index="0" disallow="tram rail_urban rail rail_electric bicycle pedestrian ship" speed="27.78" length="0.10" shape="11397.07,14874.90 11397.07,14874.90"/>
        <lane id=":1365531477_3_1" index="1" disallow="tram rail_urban rail rail_electric bicycle pedestrian ship" speed="27.78" length="0.10" shape="11393.80,14875.37 11393.80,14875.37"/>
    </edge>
    <edge id=":1365531477_5" function="internal">
        <lane id=":1365531477_5_0" index="0" disallow="tram rail_urban rail rail_electric bicycle pedestrian ship" speed="27.78" length="2.41" shape="11393.80,14875.37 11393.16,14876.72 11392.41,14877.24"/>
    </edge>
    <edge id=":1365531477_7" function="internal">
        <lane id=":1365531477_7_0" index="0" speed="27.78" length="2.41" shape="11392.41,14877.24 11391.53,14876.95 11390.54,14875.85"/>
    </edge>
    <edge id=":1365531480_0" function="internal">
        <lane id=":1365531480_0_0" index="0" disallow="tram rail_urban rail rail_electric bicycle pedestrian ship" speed="27.78" length="0.10" shape="11139.06,13186.19 11139.06,13186.19"/>
        <lane id=":1365531480_0_1" index="1" disallow="tram rail_urban rail rail_electric bicycle pedestrian ship" speed="27.78" length="0.10" shape="11142.32,13185.70 11142.32,13185.70"/>
    </edge>
    <edge id=":1365531480_2" function="internal">
        <lane id=":1365531480_2_0" index="0" disallow="tram rail_urban rail rail_electric bicycle pedestrian ship" speed="27.78" length="2.41" shape="11142.32,13185.70 11142.95,13184.35 11143.71,13183.82"/>
    </edge>
    <edge id=":1365531480_6" function="internal">
        <lane id=":1365531480_6_0" index="0" speed="27.78" length="2.41" shape="11143.71,13183.82 11144.58,13184.11 11145.58,13185.21"/>
    </edge>
    <edge id=":1365531480_3" function="internal">
        <lane id=":1365531480_3_0" index="0" disallow="tram rail_urban rail rail_electric bicycle pedestrian ship" speed="27.78" length="0.10" shape="11148.85,13184.72 11148.85,13184.72"/>
        <lane id=":1365531480_3_1" index="1" disallow="tram rail_urban rail rail_electric bicycle pedestrian ship" speed="27.78" length="0.10" shape="11145.58,13185.21 11145.58,13185.21"/>
    </edge>
    <edge id=":1365531480_5" function="internal">
        <lane id=":1365531480_5_0" index="0" disallow="tram rail_urban rail rail_electric bicycle pedestrian ship" speed="27.78" length="2.41" shape="11145.58,13185.21 11144.95,13186.56 11144.20,13187.09"/>
    </edge>
    <edge id=":1365531480_7" function="internal">
        <lane id=":1365531480_7_0" index="0" speed="27.78" length="2.41" shape="11144.20,13187.09 11143.32,13186.80 11142.32,13185.70"/>
    </edge>
    <edge id=":156782480_0" function="internal">
        <lane id=":156782480_0_0" index="0" disallow="tram rail_urban rail rail_electric ship" speed="22.22" length="0.10" shape="13034.77,18958.24 13034.76,18958.35"/>
        <lane id=":156782480_0_1" index="1" disallow="tram rail_urban rail rail_electric ship" speed="22.22" length="0.10" shape="13031.47,18958.13 13031.47,18958.13"/>
    </edge>
    <edge id=":156782480_2" function="internal">
        <lane id=":156782480_2_0" index="0" disallow="tram rail_urban rail rail_electric ship" speed="22.22" length="2.41" shape="13031.47,18958.13 13030.59,18959.33 13029.75,18959.70"/>
    </edge>
    <edge id=":156782480_6" function="internal">
        <lane id=":156782480_6_0" index="0" speed="22.22" length="2.41" shape="13029.75,18959.70 13028.94,18959.26 13028.17,18957.99"/>
    </edge>
    <edge id=":156782480_3" function="internal">
        <lane id=":156782480_3_0" index="0" disallow="tram rail_urban rail rail_electric ship" speed="22.22" length="0.15" shape="13024.87,18957.89 13024.88,18957.69"/>
        <lane id=":156782480_3_1" index="1" disallow="tram rail_urban rail rail_electric ship" speed="22.22" length="0.15" shape="13028.17,18957.93 13028.17,18957.99"/>
    </edge>
    <edge id=":156782480_5" function="internal">
        <lane id=":156782480_5_0" index="0" disallow="tram rail_urban rail rail_electric ship" speed="22.22" length="2.41" shape="13028.17,18957.93 13029.07,18956.75 13029.92,18956.38"/>
    </edge>
    <edge id=":156782480_7" function="internal">
        <lane id=":156782480_7_0" index="0" speed="22.22" length="2.41" shape="13029.92,18956.38 13030.72,18956.84 13031.47,18958.13"/>
    </edge>
    <edge id=":156789933_0" function="internal">
        <lane id=":156789933_0_0" index="0" disallow="tram rail_urban rail rail_electric ship" speed="27.78" length="10.21" shape="12918.86,16369.38 12916.67,16371.45 12915.17,16372.88 12913.69,16374.32 12911.55,16376.44"/>
        <lane id=":156789933_0_1" index="1" disallow="tram rail_urban rail rail_electric ship" speed="27.78" length="10.21" shape="12916.60,16366.98 12914.38,16369.07 12912.87,16370.51 12911.38,16371.96 12909.22,16374.10"/>
    </edge>
    <edge id=":156789933_2" function="internal">
        <lane id=":156789933_2_0" index="0" disallow="tram rail_urban rail rail_electric ship" speed="20.84" length="6.69" shape="12916.60,16366.98 12912.72,16369.81 12910.86,16370.10"/>
    </edge>
    <edge id=":156789933_3" function="internal">
        <lane id=":156789933_3_0" index="0" disallow="tram rail_urban rail rail_electric ship" speed="27.78" length="2.41" shape="12916.60,16366.98 12915.13,16367.23 12914.27,16366.92"/>
    </edge>
    <edge id=":156789933_11" function="internal">
        <lane id=":156789933_11_0" index="0" speed="20.84" length="8.89" shape="12910.86,16370.10 12909.57,16370.30 12907.12,16368.46 12905.39,16364.27"/>
    </edge>
    <edge id=":156789933_12" function="internal">
        <lane id=":156789933_12_0" index="0" speed="27.78" length="2.41" shape="12914.27,16366.92 12914.00,16366.03 12914.33,16364.58"/>
    </edge>
    <edge id=":156789933_4" function="internal">
        <lane id=":156789933_4_0" index="0" disallow="tram rail_urban rail rail_electric ship" speed="20.84" length="6.01" shape="12906.81,16363.01 12907.91,16363.78 12909.16,16363.90 12910.54,16363.36 12912.07,16362.18"/>
    </edge>
    <edge id=":156789933_5" function="internal">
        <lane id=":156789933_5_0" index="0" disallow="tram rail_urban rail rail_electric ship" speed="20.84" length="11.36" shape="12906.81,16363.01 12909.22,16374.10"/>
    </edge>
    <edge id=":156789933_6" function="internal">
        <lane id=":156789933_6_0" index="0" disallow="tram rail_urban rail rail_electric ship" speed="13.89" length="2.78" shape="12906.81,16363.01 12906.93,16363.86 12906.73,16364.35 12906.22,16364.49 12905.39,16364.27"/>
    </edge>
    <edge id=":156789933_7" function="internal">
        <lane id=":156789933_7_0" index="0" disallow="tram rail_urban rail rail_electric ship" speed="20.84" length="5.46" shape="12904.56,16369.43 12905.26,16368.47 12905.63,16367.29 12905.67,16365.89 12905.39,16364.27"/>
    </edge>
    <edge id=":156789933_8" function="internal">
        <lane id=":156789933_8_0" index="0" disallow="tram rail_urban rail rail_electric ship" speed="27.78" length="10.38" shape="12904.56,16369.43 12906.76,16367.25 12908.28,16365.77 12909.81,16364.31 12912.07,16362.18"/>
        <lane id=":156789933_8_1" index="1" disallow="tram rail_urban rail rail_electric ship" speed="27.78" length="10.38" shape="12906.89,16371.77 12909.07,16369.60 12910.58,16368.14 12912.10,16366.69 12914.33,16364.58"/>
    </edge>
    <edge id=":156789933_10" function="internal">
        <lane id=":156789933_10_0" index="0" disallow="tram rail_urban rail rail_electric ship" speed="27.78" length="2.41" shape="12906.89,16371.77 12908.35,16371.48 12909.23,16371.77"/>
    </edge>
    <edge id=":156789933_13" function="internal">
        <lane id=":156789933_13_0" index="0" speed="27.78" length="2.41" shape="12909.23,16371.77 12909.52,16372.65 12909.22,16374.10"/>
    </edge>
    <edge id=":1633421189_0" function="internal">
        <lane id=":1633421189_0_0" index="0" disallow="tram rail_urban rail rail_electric ship" speed="27.78" length="4.82" shape="19516.19,14015.04 19517.50,14015.74 19517.99,14016.53 19517.66,14017.39 19516.50,14018.32"/>
    </edge>
    <edge id=":1664222315_0" function="internal">
        <lane id=":1664222315_0_0" index="0" allow="bicycle" speed="5.56" length="1.61" width="1.00" shape="7494.87,1605.81 7495.08,1605.36 7495.33,1605.18 7495.62,1605.28 7495.96,1605.64"/>
    </edge>
    <edge id=":1664222315_1" function="internal">
        <lane id=":1664222315_1_0" index="0" disallow="tram rail_urban rail rail_electric bicycle pedestrian ship" speed="22.22" length="5.03" shape="7498.41,1604.17 7495.06,1600.41"/>
        <lane id=":1664222315_1_1" index="1" disallow="tram rail_urban rail rail_electric bicycle pedestrian ship" speed="22.22" length="5.03" shape="7500.91,1602.02 7497.58,1598.27"/>
    </edge>
    <edge id=":1664222315_3" function="internal">
        <lane id=":1664222315_3_0" index="0" disallow="tram rail_urban rail rail_electric bicycle pedestrian ship" speed="22.22" length="2.41" shape="7500.91,1602.02 7500.73,1600.54 7501.08,1599.69"/>
    </edge>
    <edge id=":1664222315_7" function="internal">
        <lane id=":1664222315_7_0" index="0" speed="22.22" length="2.41" shape="7501.08,1599.69 7501.98,1599.46 7503.41,1599.86"/>
    </edge>
    <edge id=":1664222315_4" function="internal">
        <lane id=":1664222315_4_0" index="0" disallow="tram rail_urban rail rail_electric bicycle pedestrian ship" speed="22.22" length="4.97" shape="7502.61,1594.00 7505.91,1597.70"/>
        <lane id=":1664222315_4_1" index="1" disallow="tram rail_urban rail rail_electric bicycle pedestrian ship" speed="22.22" length="4.97" shape="7500.09,1596.14 7503.41,1599.86"/>
    </edge>
    <edge id=":1664222315_6" function="internal">
        <lane id=":1664222315_6_0" index="0" disallow="tram rail_urban rail rail_electric bicycle pedestrian ship" speed="22.22" length="2.41" shape="7500.09,1596.14 7500.27,1597.61 7499.90,1598.46"/>
    </edge>
    <edge id=":1664222315_8" function="internal">
        <lane id=":1664222315_8_0" index="0" speed="22.22" length="2.41" shape="7499.90,1598.46 7499.01,1598.68 7497.58,1598.27"/>
    </edge>
    <edge id=":1664222369_0" function="internal">
        <lane id=":1664222369_0_0" index="0" allow="delivery bicycle pedestrian" speed="13.89" length="5.21" shape="6914.20,1234.09 6912.86,1234.11 6911.80,1234.59 6911.03,1235.53 6910.54,1236.93"/>
    </edge>
    <edge id=":1664222369_1" function="internal">
        <lane id=":1664222369_1_0" index="0" disallow="tram rail_urban rail rail_electric bicycle pedestrian ship" speed="22.22" length="9.43" shape="6914.20,1234.09 6904.85,1232.61"/>
        <lane id=":1664222369_1_1" index="1" disallow="tram rail_urban rail rail_electric bicycle pedestrian ship" speed="22.22" length="9.43" shape="6914.67,1230.82 6905.40,1229.36"/>
    </edge>
    <edge id=":1664222369_3" function="internal">
        <lane id=":1664222369_3_0" index="0" disallow="tram rail_urban rail rail_electric bicycle pedestrian ship" speed="22.22" length="2.41" shape="6914.67,1230.82 6913.56,1229.83 6913.27,1228.96"/>
    </edge>
    <edge id=":1664222369_11" function="internal">
        <lane id=":1664222369_11_0" index="0" speed="22.22" length="2.41" shape="6913.27,1228.96 6913.80,1228.20 6915.14,1227.56"/>
    </edge>
    <edge id=":1664222369_4" function="internal">
        <lane id=":1664222369_4_0" index="0" disallow="tram rail_urban rail rail_electric bicycle pedestrian ship" speed="22.22" length="9.06" shape="6906.70,1222.89 6915.61,1224.29"/>
        <lane id=":1664222369_4_1" index="1" disallow="tram rail_urban rail rail_electric bicycle pedestrian ship" speed="22.22" length="9.06" shape="6906.15,1226.14 6915.14,1227.56"/>
    </edge>
    <edge id=":1664222369_6" function="internal">
        <lane id=":1664222369_6_0" index="0" allow="delivery bicycle pedestrian" speed="13.89" length="4.41" shape="6906.15,1226.14 6908.84,1227.23 6909.75,1228.43"/>
    </edge>
    <edge id=":1664222369_7" function="internal">
        <lane id=":1664222369_7_0" index="0" disallow="tram rail_urban rail rail_electric bicycle pedestrian ship" speed="22.22" length="2.41" shape="6906.15,1226.14 6907.17,1227.23 6907.38,1228.12"/>
    </edge>
    <edge id=":1664222369_12" function="internal">
        <lane id=":1664222369_12_0" index="0" speed="13.89" length="8.82" shape="6909.75,1228.43 6910.47,1229.39 6911.04,1232.62 6910.54,1236.93"/>
    </edge>
    <edge id=":1664222369_13" function="internal">
        <lane id=":1664222369_13_0" index="0" speed="22.22" length="2.41" shape="6907.38,1228.12 6906.79,1228.84 6905.40,1229.36"/>
    </edge>
    <edge id=":1664222369_8" function="internal">
        <lane id=":1664222369_8_0" index="0" disallow="tram rail_urban rail rail_electric bicycle pedestrian ship" speed="13.89" length="5.05" shape="6907.31,1236.24 6907.40,1234.85 6907.02,1233.79 6906.17,1233.04 6904.85,1232.61"/>
    </edge>
    <edge id=":1664222369_9" function="internal">
        <lane id=":1664222369_9_0" index="0" disallow="tram rail_urban rail rail_electric bicycle pedestrian ship" speed="13.89" length="12.95" shape="6907.31,1236.24 6908.56,1232.13 6910.28,1229.31 6912.47,1227.79 6915.14,1227.56"/>
    </edge>
    <edge id=":1664222369_10" function="internal">
        <lane id=":1664222369_10_0" index="0" allow="delivery bicycle pedestrian" speed="5.56" length="4.82" shape="6907.31,1236.24 6908.37,1235.20 6909.27,1234.97 6909.99,1235.55 6910.54,1236.93"/>
    </edge>
    <edge id=":1853986975_0" function="internal">
        <lane id=":1853986975_0_0" index="0" allow="bicycle" speed="5.56" length="0.11" width="1.00" shape="7286.88,1399.51 7286.81,1399.43"/>
    </edge>
    <edge id=":1853986975_1" function="internal">
        <lane id=":1853986975_1_0" index="0" allow="bicycle" speed="5.56" length="0.15" width="1.00" shape="7286.88,1399.51 7286.88,1399.37"/>
    </edge>
    <edge id=":1853986975_4" function="internal">
        <lane id=":1853986975_4_0" index="0" speed="5.56" length="1.46" width="1.00" shape="7286.88,1399.37 7286.87,1399.02 7287.01,1398.74 7287.31,1398.70 7287.78,1398.87"/>
    </edge>
    <edge id=":1853986975_2" function="internal">
        <lane id=":1853986975_2_0" index="0" allow="bicycle" speed="5.56" length="0.34" width="1.00" shape="7287.55,1398.62 7287.78,1398.87"/>
    </edge>
    <edge id=":1853986975_3" function="internal">
        <lane id=":1853986975_3_0" index="0" allow="bicycle" speed="5.56" length="0.20" width="1.00" shape="7287.55,1398.62 7287.60,1398.81"/>
    </edge>
    <edge id=":1853986975_5" function="internal">
        <lane id=":1853986975_5_0" index="0" speed="5.56" length="1.40" width="1.00" shape="7287.60,1398.81 7287.67,1399.10 7287.59,1399.39 7287.30,1399.50 7286.81,1399.43"/>
    </edge>
    <edge id=":206111579_0" function="internal">
        <lane id=":206111579_0_0" index="0" disallow="tram rail_urban rail rail_electric ship" speed="13.89" length="4.82" shape="3546.62,14945.55 3547.46,14944.32 3548.29,14943.92 3549.11,14944.35 3549.92,14945.60"/>
    </edge>
    <edge id=":206111605_0" function="internal">
        <lane id=":206111605_0_0" index="0" disallow="tram rail_urban rail rail_electric ship" speed="18.05" length="7.21" shape="5069.54,14831.45 5068.61,14832.28 5067.85,14833.63 5067.26,14835.51 5066.82,14837.92"/>
    </edge>
    <edge id=":206111605_1" function="internal">
        <lane id=":206111605_1_0" index="0" disallow="tram rail_urban rail rail_electric ship" speed="22.22" length="9.73" shape="5069.54,14831.45 5060.33,14834.58"/>
    </edge>
    <edge id=":206111605_2" function="internal">
        <lane id=":206111605_2_0" index="0" disallow="tram rail_urban rail rail_electric ship" speed="22.22" length="2.75" shape="5069.54,14831.45 5068.06,14831.33 5067.29,14830.81 5067.28,14830.47"/>
    </edge>
    <edge id=":206111605_9" function="internal">
        <lane id=":206111605_9_0" index="0" speed="22.22" length="2.07" shape="5067.28,14830.47 5067.25,14829.89 5067.93,14828.57"/>
    </edge>
    <edge id=":206111605_3" function="internal">
        <lane id=":206111605_3_0" index="0" disallow="tram rail_urban rail rail_electric ship" speed="22.22" length="8.82" shape="5059.57,14831.37 5067.93,14828.57"/>
    </edge>
    <edge id=":206111605_4" function="internal">
        <lane id=":206111605_4_0" index="0" disallow="tram rail_urban rail rail_electric ship" speed="18.05" length="4.91" shape="5059.57,14831.37 5063.16,14831.03 5064.36,14831.52"/>
    </edge>
    <edge id=":206111605_5" function="internal">
        <lane id=":206111605_5_0" index="0" disallow="tram rail_urban rail rail_electric ship" speed="22.22" length="2.29" shape="5059.57,14831.37 5060.96,14831.89 5061.48,14832.50"/>
    </edge>
    <edge id=":206111605_10" function="internal">
        <lane id=":206111605_10_0" index="0" speed="18.05" length="7.51" shape="5064.36,14831.52 5065.57,14832.01 5066.79,14834.31 5066.82,14837.92"/>
    </edge>
    <edge id=":206111605_11" function="internal">
        <lane id=":206111605_11_0" index="0" speed="22.22" length="2.53" shape="5061.48,14832.50 5061.55,14832.60 5061.34,14833.49 5060.33,14834.58"/>
    </edge>
    <edge id=":206111605_6" function="internal">
        <lane id=":206111605_6_0" index="0" disallow="tram rail_urban rail rail_electric ship" speed="18.05" length="5.51" shape="5063.55,14837.49 5063.54,14835.88 5063.00,14834.87 5061.93,14834.43 5060.33,14834.58"/>
    </edge>
    <edge id=":206111605_7" function="internal">
        <lane id=":206111605_7_0" index="0" disallow="tram rail_urban rail rail_electric ship" speed="18.05" length="10.26" shape="5063.55,14837.49 5064.17,14834.31 5065.11,14831.76 5066.36,14829.85 5067.93,14828.57"/>
    </edge>
    <edge id=":206111605_8" function="internal">
        <lane id=":206111605_8_0" index="0" disallow="tram rail_urban rail rail_electric ship" speed="13.89" length="4.82" shape="5063.55,14837.49 5064.53,14836.37 5065.40,14836.07 5066.17,14836.58 5066.82,14837.92"/>
    </edge>
    <edge id=":2200366065_0" function="internal">
        <lane id=":2200366065_0_0" index="0" disallow="tram rail_urban rail rail_electric ship" speed="13.89" length="4.82" shape="8199.82,2729.46 8198.35,2729.19 8197.65,2728.60 8197.70,2727.68 8198.51,2726.43"/>
    </edge>
    <edge id=":2200366078_0" function="internal">
        <lane id=":2200366078_0_0" index="0" allow="delivery bicycle pedestrian" speed="5.56" length="4.82" shape="12383.15,4983.34 12384.27,4982.37 12385.17,4982.19 12385.86,4982.81 12386.33,4984.22"/>
    </edge>
    <edge id=":2200366307_0" function="internal">